/*--------------------------------*- C++ -*----------------------------------*\
  =========                 |
  \\      /  F ield         | OpenFOAM: The Open Source CFD Toolbox
   \\    /   O peration     | Website:  https://openfoam.org
    \\  /    A nd           | Version:  6
     \\/     M anipulation  |
\*---------------------------------------------------------------------------*/
FoamFile
{
    version     2.0;
    format      ascii;
    class       featureEdgeMesh;
    location    "constant/triSurface";
    object      Bosque_frondosas.eMesh;
}
// * * * * * * * * * * * * * * * * * * * * * * * * * * * * * * * * * * * * * //


// points:

1111
(
(704540 4734635 2047.918945)
(716220 4737995 1638.671021)
(720380 4734635 1273.996948)
(720700 4723755 1336.042969)
(720700 4724235 1327.564941)
(721180 4732555 1227.245972)
(721500 4733035 1219.56604)
(721660 4733195 1250.487061)
(721820 4733355 1252.517944)
(721980 4734795 1726.185059)
(718780 4731755 1200.196045)
(719580 4727915 979.3510132)
(721180 4724395 1269.845947)
(721660 4724555 1377.110962)
(721660 4731115 1369.928955)
(721660 4733035 1129.030029)
(702305 4721195 1142.624023)
(702465 4721195 1187.619019)
(702460 4721355 1140.300049)
(702460 4728875 977.6599731)
(702620 4728875 1039.327026)
(702460 4729035 981.1389771)
(702460 4730155 1024.161011)
(702620 4730155 1049.203003)
(702460 4730315 1033.571045)
(702620 4730315 998.8209839)
(702460 4730475 1005.89502)
(702620 4730475 996.9749756)
(702460 4730635 998.690979)
(703580 4737515 1243.944946)
(703580 4737675 1257.078979)
(703420 4737675 1304.067993)
(703580 4737835 1239.449951)
(703420 4737835 1314.109985)
(703580 4737355 1234.734009)
(703740 4737355 1238.526001)
(703740 4737515 1266.251953)
(703740 4737675 1317.246948)
(703740 4737835 1305.590942)
(703740 4734955 1468.72998)
(703900 4735115 1477.708008)
(703740 4735275 1373.89502)
(703900 4737675 1331.859009)
(704060 4734955 1641.584961)
(704060 4735115 1544.64502)
(703900 4735275 1489.311035)
(704060 4737675 1342.822021)
(703900 4737835 1340.932983)
(704060 4737835 1319.661987)
(704220 4734955 1662.784058)
(704220 4735115 1636.628052)
(704220 4737515 1422.090942)
(704220 4737675 1327.900024)
(704380 4734795 1869.796997)
(704380 4734955 1774.012939)
(704380 4737515 1414.348999)
(704380 4737675 1324.250977)
(704380 4737835 1389.281006)
(704380 4737995 1455.256958)
(704220 4737995 1414.550049)
(704380 4734475 2010.925049)
(704540 4734475 1966.508057)
(704380 4734635 1915.588989)
(704540 4734955 1866.776001)
(704540 4737675 1339.707031)
(704540 4737835 1408.848999)
(704700 4733675 1497.64502)
(704700 4733835 1597.751953)
(704540 4733835 1548.495972)
(704700 4734155 1830.734985)
(704700 4734315 1952.224976)
(704540 4734315 1841.704956)
(704700 4734475 1978.071045)
(704700 4734635 2132.220947)
(704700 4734795 2070.672119)
(704540 4735115 1862.55603)
(704700 4735115 1929.609985)
(704700 4737515 1424.990967)
(704700 4737675 1354.213013)
(704700 4737835 1443.465942)
(704700 4737995 1568.18103)
(704540 4737995 1523.203003)
(704860 4733675 1520.25)
(704860 4733835 1658.072021)
(704700 4733995 1702.661011)
(704860 4733995 1729.197021)
(704860 4734155 1832.240967)
(704860 4734315 1997.185059)
(704860 4734475 2107.138916)
(704860 4734635 2155.327881)
(704860 4734955 2099.808105)
(704860 4737515 1423.628052)
(704860 4737835 1535.274048)
(704860 4737995 1607.084961)
(704700 4738155 1657.27002)
(704860 4733515 1659.880981)
(705020 4733515 1713.993042)
(705020 4733835 1616.150024)
(705020 4733995 1793.686035)
(705020 4734155 1878.654053)
(705020 4734315 1941.107056)
(705020 4734475 2064.047119)
(705020 4734795 2220.509033)
(704860 4735115 2030.000977)
(705020 4735115 2190.881104)
(704860 4735275 2055.425049)
(705020 4737515 1412.791992)
(705020 4737995 1694.008057)
(705180 4733515 1746.338989)
(705020 4733675 1554.192993)
(705180 4733675 1588.793945)
(705180 4733835 1637.957031)
(705180 4734315 2064.88501)
(705180 4734475 2126.635986)
(705020 4734635 2183.138916)
(705180 4734635 2206.398926)
(705180 4735115 2279.933105)
(705020 4735275 2112.779053)
(705180 4737355 1496.994995)
(705180 4737515 1490.969971)
(705180 4737675 1516.636963)
(705180 4737835 1603.010986)
(705180 4737995 1681.834961)
(705340 4733675 1629.838013)
(705340 4733835 1651.435059)
(705340 4733995 1841.021973)
(705340 4734155 1935.864014)
(705180 4734155 1944.30896)
(705340 4734315 2135.179932)
(705340 4734475 2208.904053)
(705340 4737355 1492.022949)
(705340 4737675 1697.824951)
(705340 4737835 1674.203003)
(705500 4733835 1756.161987)
(705500 4734155 1937.817017)
(705500 4734315 2029.458008)
(705500 4734475 2182.11499)
(705340 4734635 2272.623047)
(705500 4737195 1551.265991)
(705500 4737355 1523.324951)
(705500 4737515 1661.250977)
(705500 4737675 1709.409058)
(705500 4733675 1659.854004)
(705660 4733675 1758.509033)
(705660 4733835 1859.135986)
(705660 4734315 2066.663086)
(705660 4734475 2181.803955)
(705500 4734635 2279.77002)
(705660 4737195 1523.535034)
(705660 4737355 1613.312012)
(705820 4733515 1850.537964)
(705820 4733675 1834.723999)
(705660 4734155 2005.578003)
(705820 4734155 2052.420898)
(705820 4734315 2231.893066)
(705820 4734475 2240.116943)
(705820 4734635 2326.461914)
(705820 4737195 1528.493042)
(705820 4737355 1701.39502)
(705820 4737515 1764.176025)
(705980 4722795 1068.305054)
(705980 4722955 1091.394043)
(705820 4722955 1117.824951)
(705980 4734315 2217.663086)
(705980 4734475 2359.785889)
(705980 4737355 1651.619019)
(705980 4737515 1811.912964)
(705980 4722635 1066.849976)
(706140 4722635 1134.329956)
(705980 4723115 1096.353027)
(706140 4723115 1140.897949)
(706140 4723275 1141.969971)
(705980 4723275 1139.123047)
(706140 4734155 2140.916992)
(706140 4734315 2257.159912)
(706300 4722475 1151.470947)
(706140 4723435 1181.602051)
(706300 4723435 1187.51001)
(706300 4733995 2073.211914)
(706300 4734155 2193.458008)
(706460 4722475 1183.363037)
(706460 4722635 1237.800049)
(706300 4723595 1248.718994)
(706460 4723595 1252.582031)
(706620 4722635 1242.911987)
(706620 4722955 1304.651978)
(706460 4723755 1335.314941)
(706780 4722955 1290.503052)
(706780 4723275 1365.767944)
(706780 4723755 1425.041992)
(706940 4723275 1370.392944)
(706940 4723435 1432.614014)
(706940 4723595 1439.426025)
(707100 4723595 1375.876953)
(706940 4723755 1407.713989)
(707100 4723755 1357.199951)
(707260 4723435 1296.44397)
(715420 4737675 1699.873047)
(715260 4737675 1724.130981)
(715580 4737355 1802.641968)
(715580 4737515 1767.011963)
(715420 4737995 1618.750977)
(715580 4737995 1646.359985)
(715740 4736715 1795.340942)
(715740 4736875 1784.505981)
(715580 4736875 1826.578003)
(715740 4737195 1823.891968)
(715740 4737355 1790.85498)
(715740 4737995 1647.631958)
(715580 4738155 1618.255981)
(715585 4721195 1529.108032)
(715740 4721355 1520.977051)
(715740 4721515 1524.338013)
(715900 4721515 1474.029053)
(715900 4736555 1811.187988)
(715900 4736715 1757.647949)
(715900 4736875 1748.670044)
(715740 4737035 1822.754028)
(715900 4737035 1773.177979)
(715900 4737195 1780.439941)
(715900 4737355 1782.258057)
(715900 4737515 1778.489014)
(715740 4738155 1619.172974)
(715900 4738155 1586.593994)
(715900 4721675 1453.077026)
(716060 4737195 1734.269043)
(716060 4737995 1652.261963)
(715900 4738315 1551.379028)
(716060 4738315 1566.479004)
(716220 4721675 1341.475952)
(716220 4736555 1807.338989)
(716220 4738155 1582.740967)
(716220 4738315 1572.633057)
(716060 4738475 1493.362061)
(716220 4738475 1504.692993)
(716220 4721835 1344.300049)
(716380 4736395 1820.755981)
(716380 4736555 1809.791016)
(716380 4736715 1771.64502)
(716380 4737995 1524.170044)
(716380 4738155 1531.702026)
(716380 4738315 1548.144043)
(716540 4721675 1243.633057)
(716540 4721835 1270.840942)
(716540 4736555 1824.313965)
(716700 4736715 1852.230957)
(716700 4736875 1790.92395)
(716700 4737835 1529.850952)
(716700 4737995 1507.103027)
(716860 4721355 1290.839966)
(716860 4721515 1248.782959)
(716860 4721675 1218.128052)
(716860 4736715 1832.630981)
(716860 4736875 1812.456055)
(716860 4737835 1511.494019)
(716865 4721195 1351.369019)
(717020 4721355 1284.5)
(717020 4721515 1239.109985)
(717020 4736715 1788.026978)
(717020 4736875 1836.160034)
(717020 4737355 1659.317993)
(717020 4737515 1587.598999)
(717020 4737675 1520.129028)
(717180 4737355 1642.936035)
(717180 4737515 1611.837036)
(717180 4737675 1545.733032)
(717020 4737835 1490.723022)
(717340 4737675 1567.590942)
(717180 4737835 1486.947021)
(717340 4737835 1471.985962)
(717660 4731915 1378.251953)
(717660 4732075 1383.522949)
(717500 4732075 1383.637939)
(717820 4728715 1571.791016)
(717660 4728715 1612.448975)
(717660 4728875 1603.144043)
(717820 4731915 1372.879028)
(717820 4732075 1366.93103)
(717820 4736715 1813.079956)
(717660 4736875 1912.255005)
(717660 4737195 1702.192993)
(717980 4728395 1545.322021)
(717820 4728875 1595.062012)
(717980 4728875 1549.297974)
(717980 4729035 1575.078003)
(717980 4729195 1565.521973)
(717820 4729195 1598.390015)
(717820 4729355 1595.282959)
(717820 4736555 1869.10498)
(717980 4736555 1770.328003)
(717980 4737035 1642.01001)
(717820 4737355 1579.771973)
(717820 4737675 1412.781006)
(717980 4737675 1396.515015)
(718140 4728395 1505.682007)
(718140 4729195 1495.880005)
(718140 4729355 1441.560059)
(717980 4729515 1477.078003)
(718140 4731435 1390.659058)
(717980 4731595 1379.911011)
(717980 4731755 1381.509033)
(718140 4731755 1360.551025)
(718140 4732075 1369.019043)
(717980 4736395 1788.838989)
(718140 4736715 1633.843018)
(718140 4736875 1588.937988)
(718140 4737355 1495.909058)
(718140 4737675 1346.957031)
(717980 4737835 1347.213013)
(718140 4728235 1536.052002)
(718300 4729035 1422.890015)
(718300 4729195 1403.541016)
(718140 4731115 1394.791992)
(718300 4731915 1311.435059)
(718300 4735115 1431.72998)
(718140 4735275 1468.833984)
(718300 4736395 1755.147949)
(718300 4736555 1663.646973)
(718300 4736715 1599.01001)
(718300 4737035 1517.863037)
(718300 4737195 1486.582031)
(718300 4737355 1419.28894)
(718300 4737515 1379.618042)
(718300 4737675 1314.68103)
(718460 4728235 1452.197998)
(718460 4729035 1378.046021)
(718300 4729675 1374.30603)
(718460 4729675 1355.953979)
(718300 4729835 1371.922974)
(718460 4729835 1353.927979)
(718460 4731115 1339.266968)
(718460 4731915 1300.052002)
(718300 4732075 1364.103027)
(718460 4734315 1506.244019)
(718460 4734475 1493.327026)
(718300 4734475 1548.024048)
(718460 4735115 1397.685059)
(718300 4735595 1413.31897)
(718460 4735595 1396.109009)
(718300 4735755 1429.177979)
(718460 4736235 1771.983032)
(718460 4736555 1610.43103)
(718460 4737035 1463.446045)
(718460 4737195 1426.784058)
(718460 4737515 1340.248047)
(718620 4728075 1438.534058)
(718460 4729195 1354.015015)
(718620 4729195 1301.814941)
(718620 4729355 1298.620972)
(718620 4729515 1291.337036)
(718460 4729515 1330.906982)
(718620 4729675 1331.449951)
(718620 4730955 1313.871948)
(718620 4731115 1313.02002)
(718620 4731915 1248.46106)
(718460 4732075 1339.432983)
(718620 4734315 1451.786011)
(718620 4734475 1436.932983)
(718460 4734795 1481.073975)
(718620 4734795 1395.685059)
(718460 4734955 1439.896973)
(718620 4734955 1399.862061)
(718620 4735275 1304.744995)
(718620 4735435 1341.227051)
(718460 4735435 1381.581055)
(718620 4736235 1690.687012)
(718620 4736395 1638.739014)
(718620 4737355 1371.989014)
(718780 4728075 1408.084961)
(718780 4728235 1377.859009)
(718780 4729355 1250.807983)
(718780 4729675 1331.667969)
(718780 4731115 1312.264038)
(718780 4731915 1280.218018)
(718620 4732555 1404.706055)
(718780 4732555 1369.050049)
(718620 4732875 1427.280029)
(718780 4734475 1381.453003)
(718780 4734635 1348.843994)
(718780 4734955 1324.47998)
(718780 4735115 1270.365967)
(718780 4735435 1377.761963)
(718620 4735595 1452.156982)
(718780 4735595 1505.795044)
(718940 4728235 1364.509033)
(718940 4728395 1321.504028)
(718940 4729515 1263.699951)
(718940 4730955 1308.649048)
(718940 4731115 1279.535034)
(718940 4731755 1174.715942)
(718780 4732235 1338.244995)
(718940 4732235 1296.027954)
(718940 4732395 1316.06604)
(718940 4732555 1344.10498)
(718780 4732875 1417.467041)
(718940 4734795 1309.137939)
(718940 4734955 1316.781982)
(718940 4735115 1236.652954)
(718940 4735275 1278.124023)
(718940 4737195 1356.167969)
(718940 4737355 1354.910034)
(718940 4737515 1326.437012)
(719100 4728395 1216.112061)
(719100 4729515 1220.82605)
(719100 4730955 1287.837036)
(719100 4731755 1161.098999)
(719100 4732235 1271.447998)
(719100 4732555 1323.506958)
(719100 4732715 1339.770996)
(719100 4732875 1357.083008)
(719100 4734955 1273.725952)
(719100 4735115 1202.13501)
(718940 4737035 1398.275024)
(719100 4737035 1367.040039)
(719100 4737355 1327.053955)
(718940 4737675 1259.97998)
(719100 4728235 1258.982056)
(719260 4728235 1132.360962)
(719260 4729515 1174.776001)
(719100 4729675 1286.725952)
(719260 4730955 1244.04895)
(719100 4731915 1213.31604)
(719260 4731915 1186.759033)
(719260 4732235 1260.589966)
(719260 4732395 1287.970947)
(719260 4732555 1313.891968)
(719260 4734955 1253.260986)
(719260 4735435 1344.156982)
(719260 4737035 1309.817017)
(719260 4737195 1295.812012)
(719100 4737195 1346.319946)
(719260 4737355 1285.535034)
(719260 4728075 1160.297974)
(719420 4728075 1026.177979)
(719420 4729515 1135.840942)
(719260 4729675 1241.885986)
(719420 4730635 1173.302979)
(719420 4730795 1179.265991)
(719260 4730795 1236.438965)
(719420 4731435 1100.506958)
(719420 4731755 1149.23999)
(719420 4732075 1211.573975)
(719420 4732395 1255.329956)
(719420 4732555 1296.187012)
(719260 4732715 1303.432007)
(719260 4732875 1320.188965)
(719420 4732875 1294.88501)
(719420 4734955 1248.991943)
(719420 4735115 1179.20105)
(719260 4736235 1426.151978)
(719420 4736235 1328.974976)
(719420 4736395 1366.150024)
(719260 4736555 1427.015015)
(719420 4724875 926.3530273)
(719580 4727595 977.0560303)
(719420 4727755 1030.944946)
(719580 4729035 1083.238037)
(719420 4729675 1186.662964)
(719580 4729675 1087.889038)
(719580 4730635 1120.484009)
(719580 4730795 1088.639038)
(719580 4730955 1086.855957)
(719580 4731115 1077.062012)
(719580 4731275 1075.767944)
(719580 4731595 1120.03894)
(719580 4731755 1153.04895)
(719580 4731915 1186.583008)
(719420 4732235 1242.883057)
(719580 4732235 1226.833008)
(719580 4732555 1248.82605)
(719580 4734955 1215.339966)
(719580 4735115 1197.781982)
(719580 4735435 1277.282959)
(719420 4736075 1385.162964)
(719580 4736075 1287.594971)
(719420 4736555 1416.307007)
(719740 4724555 905.2979736)
(719580 4727435 972.7839966)
(719740 4727435 1064.758057)
(719740 4727595 1043.651001)
(719740 4728235 1013.741028)
(719740 4729035 1065.131958)
(719740 4729675 1065.323975)
(719580 4729835 1194.985962)
(719740 4729835 1137.019043)
(719740 4730315 1151.343994)
(719740 4730795 1065.140991)
(719740 4730955 1065.141968)
(719740 4731435 1081.262939)
(719740 4731595 1106.545044)
(719740 4731755 1121.369995)
(719740 4732075 1180.569946)
(719740 4734955 1180.641968)
(719740 4735435 1218.620972)
(719580 4735595 1407.16394)
(719740 4735595 1212.14502)
(719740 4735755 1225.786987)
(719580 4735755 1415.870972)
(719580 4735915 1329.072998)
(719740 4736555 1240.349976)
(719900 4724555 934.1849976)
(719900 4724875 952.40802)
(719900 4725195 927.5280151)
(719900 4725355 941.1129761)
(719740 4725355 939.0269775)
(719900 4725515 958.0280151)
(719740 4725515 962.3640137)
(719900 4728555 1013.14801)
(719900 4728875 1064.628052)
(719900 4729835 1079.177979)
(719740 4729995 1172.555054)
(719900 4729995 1088.708984)
(719740 4730155 1209.909058)
(719900 4730475 1069.715942)
(719900 4732075 1177.069946)
(719740 4732235 1200.473999)
(719900 4735115 1154.399048)
(719900 4735435 1219.744019)
(719900 4735595 1198.31604)
(719900 4735755 1271.655029)
(719900 4736395 1314.680054)
(719900 4723435 895.1279907)
(719900 4723595 901.4940186)
(720060 4723595 970.2520142)
(719900 4723755 907.367981)
(719900 4724075 897.9069824)
(720060 4724075 997.6870117)
(720060 4724235 994.4470215)
(719900 4724235 893.1779785)
(719900 4724395 933.0549927)
(720060 4724395 955.5750122)
(720060 4724715 959.6539917)
(719900 4725035 923.9349976)
(720060 4725035 981.1890259)
(720060 4725355 1047.927002)
(720060 4727595 1276.348022)
(720060 4727755 1230.494995)
(720060 4728875 1105.707031)
(720060 4734955 1162.016968)
(720060 4735435 1341.410034)
(720060 4736235 1426.227051)
(720060 4736395 1363.245972)
(720060 4736555 1258.465942)
(720220 4722635 854.6069946)
(720220 4722795 863.3040161)
(720060 4722795 852.257019)
(720220 4723115 883.7719727)
(720220 4725355 1148.878052)
(720220 4727595 1364.633057)
(720060 4729195 1065.089966)
(720220 4734635 1097.286011)
(720060 4734795 1166.389038)
(720220 4735275 1257.541992)
(720220 4735755 1247.390991)
(720220 4735915 1279.875)
(720220 4736075 1387.137939)
(720220 4736395 1282.737061)
(720380 4725195 1228.561035)
(720380 4727595 1505.525024)
(720380 4729195 1091.167969)
(720220 4734155 1204.871948)
(720380 4734155 1115.401001)
(720380 4734315 1096.651001)
(720220 4734475 1126.894043)
(720380 4734475 1150.944946)
(720220 4735435 1319.751953)
(720380 4735435 1458.540039)
(720380 4735915 1279.661011)
(720380 4736075 1295.008057)
(720220 4736235 1382.130005)
(720540 4722635 870.7230225)
(720540 4727435 1703.68396)
(720380 4729355 1065.089966)
(720540 4729355 1099.529053)
(720380 4729515 1065.089966)
(720540 4730795 1113.80603)
(720540 4730955 1084.126953)
(720380 4730955 1065.089966)
(720380 4731115 1065.089966)
(720380 4731275 1065.089966)
(720540 4731275 1076.500977)
(720380 4732555 1065.089966)
(720540 4732555 1065.089966)
(720380 4732715 1082.503052)
(720540 4732715 1065.089966)
(720380 4732875 1117.022949)
(720540 4732875 1085.168945)
(720540 4733675 1101.662964)
(720540 4733835 1076.55896)
(720380 4733835 1189.276978)
(720380 4733995 1157.17395)
(720540 4734155 1075.551025)
(720540 4734315 1117.503052)
(720540 4734635 1261.467041)
(720540 4734795 1299.597046)
(720540 4735275 1457.131958)
(720540 4735435 1417.641968)
(720540 4735595 1328.654053)
(720540 4736075 1348.555054)
(720380 4736235 1311.417969)
(720540 4736235 1411.552979)
(720700 4722475 885.1030273)
(720700 4723915 1309.292969)
(720700 4725195 1397.525024)
(720700 4727435 1770.150024)
(720700 4728075 1353.274048)
(720540 4731435 1065.089966)
(720700 4731435 1086.099976)
(720700 4732875 1065.089966)
(720700 4733515 1065.089966)
(720700 4733835 1104.099976)
(720700 4734155 1101.800049)
(720700 4734315 1124.571045)
(720700 4734475 1189.727051)
(720700 4734795 1359.522949)
(720700 4734955 1459.171997)
(720700 4735115 1512.662964)
(720700 4735755 1381.167969)
(720700 4735915 1401.387939)
(720700 4736075 1415.120972)
(720700 4736235 1533.659058)
(720540 4736395 1443.089966)
(720700 4722315 864.3049927)
(720860 4723755 1312.324951)
(720860 4723915 1384.161987)
(720860 4724075 1384.723999)
(720860 4725195 1497.047974)
(720700 4725355 1403.755981)
(720860 4728395 1325.250977)
(720860 4729515 1219.217041)
(720700 4731755 1065.089966)
(720860 4731755 1106.125)
(720860 4731915 1104.724976)
(720700 4731915 1065.089966)
(720860 4732075 1119.605957)
(720700 4732075 1065.089966)
(720860 4733515 1096.605957)
(720700 4734635 1282.362061)
(720860 4734955 1499.514038)
(720860 4735115 1488.625977)
(720860 4735595 1400.515015)
(721020 4723755 1333.814941)
(721020 4723915 1411.635986)
(721020 4724075 1471.135986)
(720860 4725355 1516.128052)
(721020 4725355 1600.302979)
(721020 4728235 1397.675049)
(721020 4729515 1298.28894)
(720860 4729675 1242.416016)
(721020 4729675 1309.213989)
(721020 4731915 1169.010986)
(721020 4732075 1198.641968)
(721020 4732235 1151.833984)
(721020 4732395 1166.401001)
(720860 4732555 1065.682007)
(720860 4732715 1066.006958)
(721020 4732715 1071.620972)
(721020 4733995 1177.18103)
(721020 4734155 1184.144043)
(721020 4734635 1429.364014)
(721180 4722315 964.2689819)
(721180 4722475 1030.083984)
(721180 4723595 1237.896973)
(721020 4725515 1611.687988)
(721180 4728075 1507.206055)
(721180 4728235 1456.724976)
(721180 4728395 1400.206055)
(721180 4728555 1379.473022)
(721180 4729515 1372.072021)
(721180 4731915 1214.61499)
(721180 4732235 1209.133057)
(721180 4732395 1260.281982)
(721020 4732875 1071.704956)
(721180 4732875 1082.692017)
(721180 4733515 1128.879028)
(721180 4733675 1176.400024)
(721020 4733675 1145.478027)
(721020 4733835 1170.892944)
(721180 4734155 1246.42395)
(721180 4734315 1262.259033)
(721180 4734635 1415.909058)
(721180 4734795 1457.474976)
(721340 4722155 941.382019)
(721340 4722315 992.8829956)
(721340 4723435 1218.401001)
(721340 4723595 1282.579956)
(721340 4723755 1340.509033)
(721340 4728395 1457.94104)
(721340 4728555 1461.649048)
(721340 4729195 1440.959961)
(721340 4729355 1428.149048)
(721340 4729515 1400.620972)
(721180 4729675 1378.157959)
(721340 4729675 1405.274048)
(721340 4731915 1273.864014)
(721180 4732075 1210.749023)
(721340 4732075 1268.728027)
(721340 4732395 1273.319946)
(721180 4733195 1082.473999)
(721340 4733195 1125.842041)
(721180 4733355 1100.235962)
(721340 4733355 1127.081055)
(721340 4733835 1219.328003)
(721340 4733995 1242.692993)
(721340 4734155 1285.829956)
(721340 4734315 1353.932983)
(721180 4734475 1319.463989)
(721340 4734475 1373.886963)
(721340 4734635 1420.694946)
(721340 4734955 1517.029053)
(721340 4735115 1571.410034)
(721180 4735115 1577.459961)
(721180 4735275 1524.150024)
(721500 4722155 971.8480225)
(721500 4722315 1007.036011)
(721500 4723595 1317.161987)
(721500 4724075 1529.939941)
(721500 4725515 1737.197998)
(721500 4728395 1577.387939)
(721500 4728555 1532.255981)
(721500 4729195 1512.600952)
(721500 4729355 1466.589966)
(721500 4729515 1435.916992)
(721500 4730955 1352.810059)
(721500 4731755 1331.078003)
(721500 4732075 1401.17395)
(721500 4732235 1406.594971)
(721500 4733195 1179.787964)
(721500 4733355 1138.110962)
(721500 4733835 1247.543945)
(721500 4734315 1382.740967)
(721500 4734475 1442.072021)
(721340 4735275 1571.895996)
(721500 4735275 1639.276978)
(721660 4722635 1062.454956)
(721660 4722795 1127.786987)
(721660 4723595 1323.796021)
(721500 4723755 1415.572998)
(721660 4723915 1489.47998)
(721660 4724075 1570.777954)
(721660 4724715 1389.302979)
(721660 4725355 1743.584961)
(721660 4728555 1602.89502)
(721660 4729035 1629.26001)
(721500 4730795 1348.803955)
(721660 4731275 1491.053955)
(721660 4731435 1484.588989)
(721660 4731595 1454.467041)
(721660 4731915 1441.18103)
(721660 4732075 1381.527954)
(721660 4732235 1390.823975)
(721660 4732395 1327.567993)
(721660 4732875 1133.609985)
(721660 4733355 1172.920044)
(721660 4734475 1487.889038)
(721660 4735115 1706.102051)
(721820 4722475 1034.515991)
(721820 4722635 1087.380981)
(721820 4722795 1138.305054)
(721820 4722955 1225.704956)
(721820 4723115 1311.196045)
(721820 4723595 1321.491943)
(721820 4724075 1566.402954)
(721820 4725355 1726.714966)
(721660 4725515 1715.001953)
(721820 4730795 1434.404053)
(721820 4731115 1410.838989)
(721820 4731275 1533.254028)
(721820 4731755 1530.113037)
(721820 4731915 1450.744995)
(721820 4732075 1383.062012)
(721820 4733035 1133.182983)
(721820 4733195 1157.223999)
(721660 4733515 1164.284058)
(721820 4733995 1309.338989)
(721820 4734155 1393.753052)
(721660 4734155 1331.031006)
(721820 4734315 1459.034058)
(721660 4734315 1440.360962)
(721820 4735115 1752.520996)
(721820 4735275 1769.350952)
(721660 4735275 1716.990967)
(721980 4722955 1276.765991)
(721980 4723435 1394.067993)
(721820 4723755 1384.256958)
(721980 4723755 1434.422974)
(721820 4723915 1468.71106)
(721980 4725355 1700.290039)
(721820 4725515 1712.744995)
(721980 4730635 1503.416016)
(721980 4730795 1516.219971)
(721980 4730955 1467.526978)
(721980 4731115 1488.160034)
(721820 4732235 1368.121948)
(721980 4732395 1318.151001)
(721980 4732555 1260.761963)
(721980 4732875 1204.864014)
(721980 4733035 1149.244019)
(721980 4733355 1224.394043)
(721980 4733515 1197.260986)
(721980 4733995 1303.612061)
(721980 4735275 1719.571045)
(721820 4735435 1744.04895)
(721980 4735435 1795.28894)
(722140 4723275 1394.011963)
(722140 4723755 1513.340942)
(722140 4723915 1566.402954)
(722140 4724075 1614.730957)
(722140 4724235 1661.030029)
(722140 4724395 1627.758057)
(722140 4725355 1679.406006)
(722140 4725515 1771.19104)
(722140 4730795 1609.930054)
(722140 4730955 1607.753052)
(722140 4732235 1359.041992)
(722140 4732395 1321.845947)
(722140 4732555 1302.977051)
(722140 4732715 1277.23999)
(722140 4732875 1244.235962)
(722140 4733035 1179.151001)
(722140 4733195 1121.134033)
(722140 4735435 1746.994019)
(722300 4723755 1540.396973)
(722300 4723915 1564.873047)
(722300 4724395 1690.685059)
(722300 4724715 1569.223022)
(722300 4724875 1656.395996)
(722300 4725195 1701.511963)
(722300 4725355 1694.677002)
(722300 4725515 1791.686035)
(722140 4725675 1752.876953)
(722300 4731915 1509.631958)
(722300 4732555 1327.334961)
(722300 4732715 1277.261963)
(722300 4732875 1256.952026)
(722300 4733195 1163.505981)
(722300 4734155 1306.087036)
(722300 4735275 1649.657959)
(703900 4734955 1532.155029)
(703740 4735115 1394.171021)
(704860 4734795 2134.479004)
(705020 4734955 2212.816895)
(705180 4733995 1825.858032)
(705500 4733995 1873.942993)
(705660 4734635 2323.73999)
(705660 4737515 1724.724976)
(705980 4734155 2089.615967)
(706620 4722795 1293.526978)
(706620 4723755 1369.123047)
(706780 4723115 1345.399048)
(707100 4723435 1371.896973)
(715420 4737515 1738.504028)
(715420 4737835 1656.688965)
(715740 4737515 1809.754028)
(715745 4721195 1559.973022)
(715905 4721195 1518.020996)
(716060 4721675 1408.435059)
(716060 4736555 1790.020996)
(716065 4721195 1447.522949)
(716225 4721195 1404.990967)
(716380 4721835 1309.598999)
(716385 4721195 1396.171997)
(716540 4736715 1807.384033)
(716540 4737995 1519.583008)
(716545 4721195 1381.167969)
(716700 4721675 1221.295044)
(716705 4721195 1363.277954)
(717020 4737035 1776.72998)
(717020 4737195 1736.651978)
(717820 4728555 1577.109009)
(717660 4737035 1810.29895)
(717820 4737195 1661.676025)
(717980 4732075 1373.983032)
(717980 4731915 1361.339966)
(717980 4737195 1608.704956)
(717980 4737355 1547.38501)
(717820 4737515 1494.262939)
(717980 4729355 1522.031982)
(718140 4736395 1790.303955)
(718140 4737035 1567.097046)
(718140 4737195 1535.517944)
(718300 4728235 1503.024048)
(718300 4731115 1368.977051)
(718140 4731275 1405.469971)
(718300 4735275 1406.208984)
(718460 4735275 1367.999023)
(718460 4737355 1383.208984)
(718460 4734635 1464.776978)
(718620 4735115 1353.720947)
(718620 4737195 1425.786987)
(718620 4737515 1321.02002)
(718620 4732715 1414.407959)
(718780 4732715 1393.734985)
(718780 4734795 1341.456055)
(718780 4735275 1255.671021)
(718780 4737195 1395.439941)
(718780 4737515 1302.551025)
(718780 4732395 1349.719971)
(718940 4732875 1397.713013)
(718940 4732715 1372.918945)
(718940 4735435 1368.68396)
(719100 4732075 1240.583008)
(719100 4735435 1360.045044)
(719100 4737515 1297.06604)
(719420 4731915 1191.001953)
(719420 4732715 1275.030029)
(719420 4735435 1336.739014)
(719260 4735595 1587.578979)
(719260 4736395 1453.475952)
(719580 4724875 920.815979)
(719580 4724715 893.3469849)
(719420 4727915 1021.02301)
(719580 4729195 1080.176025)
(719580 4729355 1076.857056)
(719580 4729515 1082.281982)
(719580 4730475 1146.983032)
(719580 4731435 1088.10498)
(719580 4732075 1210.11499)
(719580 4732395 1235.972046)
(719420 4735595 1524.092041)
(719580 4736555 1347.978027)
(719740 4724875 928.0300293)
(719740 4730635 1065.140015)
(719740 4731915 1162.547974)
(719740 4735115 1182.060059)
(719900 4727595 1137.588013)
(719900 4730155 1079.703979)
(719900 4730315 1065.089966)
(719900 4736555 1272.588013)
(720060 4723275 884.5560303)
(719900 4723915 897.7349854)
(720060 4735755 1226.177979)
(720060 4724875 974.7440186)
(720060 4729035 1071.932007)
(720220 4729195 1065.089966)
(720380 4722635 862.9060059)
(720220 4722955 864.5250244)
(720220 4734315 1158.819946)
(720380 4735755 1274.983032)
(720540 4725195 1321.004028)
(720540 4729515 1106.188965)
(720700 4727595 1649.782959)
(720700 4727755 1526.416016)
(720700 4727915 1420.329956)
(720700 4729515 1162.998047)
(720700 4730955 1103.389038)
(720540 4733035 1103.776978)
(720700 4733035 1065.089966)
(720540 4733195 1113.660034)
(720700 4733195 1065.089966)
(720540 4733355 1105.864014)
(720700 4733355 1065.089966)
(720540 4733515 1101.012939)
(720700 4733675 1077.505981)
(720700 4733995 1110.983032)
(720700 4735595 1373.917969)
(720860 4722315 895.4169922)
(720860 4728075 1390.993042)
(720860 4730955 1145.993042)
(720700 4731595 1065.089966)
(720860 4734315 1135.697021)
(720860 4734155 1121.022949)
(720860 4734635 1330.390015)
(721020 4722315 929.0139771)
(721020 4728075 1443.225952)
(721020 4728395 1364.531982)
(721020 4730955 1175.249023)
(720860 4732235 1065.114014)
(720860 4732395 1065.11499)
(721020 4734315 1169.029053)
(721020 4734955 1511.72998)
(721180 4723755 1323.083008)
(721180 4724075 1465.384033)
(721180 4725515 1656.311035)
(721180 4730955 1196.069946)
(721180 4734955 1499.33606)
(721340 4722475 1043.004028)
(721340 4724075 1505.093994)
(721340 4725515 1704.026001)
(721340 4730955 1301.389038)
(721180 4733035 1091.319946)
(721180 4733835 1212.904053)
(721180 4733995 1216.214966)
(721500 4722475 1035.177002)
(721500 4733515 1182.803955)
(721500 4733675 1226.156006)
(721660 4722475 1027.119019)
(721660 4728715 1569.832031)
(721660 4728875 1586.68396)
(721660 4730795 1373.626953)
(721660 4731755 1480.776001)
(721820 4732395 1322.975952)
(721820 4733515 1170.041016)
(721980 4723115 1353.284058)
(721980 4723275 1413.21106)
(721980 4723915 1479.786011)
(721980 4724075 1563.687012)
(721980 4725515 1752.671021)
(721980 4731915 1484.20105)
(721980 4732235 1348.57605)
(721980 4734155 1351.28894)
(722140 4723435 1447.787964)
(722140 4723595 1485.968994)
(722140 4731915 1505.598022)
(722140 4734155 1333.062988)
(722300 4724555 1641.008057)
(722300 4725035 1642.442993)
(722300 4732075 1478.973999)
(722300 4732235 1437.75)
(722300 4732395 1377.067993)
(722300 4733035 1214.020996)
(722300 4734315 1398.281006)
(722300 4734475 1465.5)
(722300 4734635 1534.421021)
(722300 4734795 1528.022949)