/*--------------------------------*- C++ -*----------------------------------*\
  =========                 |
  \\      /  F ield         | OpenFOAM: The Open Source CFD Toolbox
   \\    /   O peration     | Website:  https://openfoam.org
    \\  /    A nd           | Version:  6
     \\/     M anipulation  |
\*---------------------------------------------------------------------------*/
FoamFile
{
    version     2.0;
    format      ascii;
    class       featureEdgeMesh;
    location    "constant/triSurface";
    object      Bosque_coniferas.eMesh;
}
// * * * * * * * * * * * * * * * * * * * * * * * * * * * * * * * * * * * * * //


// points:

3474
(
(702940 4737995 1652.151978)
(703100 4738155 1545.567017)
(703420 4733835 1563.671021)
(703580 4732395 1750.233032)
(703580 4732875 1628.197021)
(703580 4733995 1664.984985)
(703740 4730635 1664.000977)
(703740 4734155 1749.208984)
(703900 4727755 1607.103027)
(703900 4730475 1715.902954)
(703900 4739915 1862.864014)
(704060 4730475 1743.614014)
(704220 4727435 1682.359985)
(704220 4735275 1725.375)
(704380 4737195 1674.175049)
(704700 4737195 1818.545044)
(704860 4736875 1985.18396)
(705500 4729675 1647.067017)
(707900 4725195 1510.692017)
(708220 4723115 1107.364014)
(708540 4722635 1236.362061)
(710140 4723115 1498.36499)
(710620 4722155 1444.615967)
(715580 4722795 1468.462036)
(715740 4724715 1708.285034)
(715740 4724875 1721.546021)
(719420 4739915 1566.938965)
(719580 4726795 1093.759033)
(719580 4739915 1656.235962)
(719740 4740075 1818.666992)
(719740 4740715 1791.121948)
(719900 4726955 1284.046021)
(720060 4727115 1404.714966)
(720060 4740235 1919.628052)
(720220 4740555 1993.286987)
(720380 4727115 1549.954956)
(702620 4736395 1411.838013)
(703260 4738955 1396.475952)
(703580 4738955 1345.932983)
(703740 4730795 1557.327026)
(703740 4732875 1612.781006)
(703900 4729515 1288.551025)
(703900 4732555 1762.392944)
(703900 4734155 1661.177002)
(704860 4723275 969.9910278)
(705020 4723435 978.4310303)
(705180 4728075 1443.274048)
(705660 4728075 1423.848022)
(705820 4725835 1381.458984)
(705980 4725995 1444.771973)
(708220 4722955 1050.349976)
(708540 4725195 1400.324951)
(708700 4725195 1456.104004)
(708700 4725355 1492.119995)
(709180 4723115 1145.406982)
(709820 4722315 1188.493042)
(710620 4725195 1225.60498)
(710780 4724395 1181.416016)
(710780 4725035 1213.482056)
(710940 4724075 1147.588013)
(710940 4724235 1154.755005)
(711420 4723595 1171.474976)
(711580 4723755 1183.090942)
(712060 4724075 1268.82605)
(712220 4724555 1375.833984)
(714300 4725515 1489.453003)
(714780 4725355 1600.421021)
(716060 4724555 1539.550049)
(716060 4724715 1556.180054)
(716540 4732395 1441.156982)
(717820 4721995 1069.524048)
(718140 4724555 1326.355957)
(718620 4726315 1206.360962)
(719100 4724715 1014.200012)
(702465 4721195 1187.619019)
(702460 4723275 1202.948975)
(702620 4723755 1134.41394)
(702460 4723915 1148.333008)
(702460 4724075 1150.457031)
(702620 4724075 1185.822021)
(702460 4724715 1218.004028)
(702620 4724715 1233.390991)
(702460 4725355 978.3519897)
(702620 4725515 1011.620972)
(702460 4725675 1052.583984)
(702620 4726315 1192.149048)
(702620 4726475 1183.218018)
(702460 4726475 1156.588989)
(702460 4726635 1169.967041)
(702460 4727275 1140.814941)
(702620 4727915 1020.161987)
(702460 4728075 956.4810181)
(702620 4730315 998.8209839)
(702620 4730475 996.9749756)
(702460 4730475 1005.89502)
(702460 4730635 998.690979)
(702620 4730955 1027.199951)
(702460 4731595 1051.218018)
(702620 4731595 1016.242981)
(702460 4731755 1055.714966)
(702620 4732235 1042.688965)
(702460 4732395 1193.274048)
(702460 4732555 1149.177979)
(702460 4732715 1212.864014)
(702620 4732715 1055.921021)
(702460 4732875 1149.563965)
(702620 4732875 1079.984985)
(702460 4736395 1514.324951)
(702460 4737035 1823.292969)
(702460 4737195 1747.968018)
(702460 4737515 1868.536011)
(702620 4737515 1719.001953)
(702460 4737675 1660.718018)
(702620 4737675 1747.545044)
(702620 4738315 1466.150024)
(702620 4738475 1480.998047)
(702460 4738475 1565.504028)
(702460 4738635 1677.937012)
(702620 4738795 1676.291992)
(702620 4738955 1686.579956)
(702460 4738955 1857.199951)
(702460 4739115 1822.755005)
(702620 4739115 1699.990967)
(702620 4739595 1504.862061)
(702460 4739755 1529.800049)
(702780 4724075 1169.416992)
(702780 4724555 1252.687012)
(702620 4726155 1196.385986)
(702780 4726155 1194.722046)
(702780 4727275 1169.446045)
(702620 4728235 967.1149902)
(702780 4728235 1017.953979)
(702780 4730955 1117.895996)
(702780 4735915 1450.522949)
(702780 4736075 1412.708984)
(702620 4736075 1567.187012)
(702780 4736875 1504.723022)
(702780 4737035 1611.071045)
(702780 4737515 1647.491943)
(702780 4737675 1722.319946)
(702620 4737835 1588.552002)
(702780 4737835 1705.526001)
(702780 4737995 1564.459961)
(702620 4737995 1492.355957)
(702780 4738475 1426.119995)
(702780 4738635 1465.137939)
(702780 4739115 1573.327026)
(702780 4739275 1548.107056)
(702780 4739435 1476.848999)
(702620 4739755 1472.588989)
(702780 4724235 1232.446045)
(702940 4724235 1248.207031)
(702940 4724555 1297.629028)
(702780 4726315 1225.749023)
(702940 4726315 1203.203979)
(702780 4726475 1217.406006)
(702940 4726475 1261.062012)
(702940 4727115 1245.329956)
(702940 4727275 1192.090942)
(702780 4728395 988.6989746)
(702940 4728395 1054.112061)
(702940 4728715 1075.447998)
(702780 4728875 1083.217041)
(702940 4730315 1237.56897)
(702940 4730475 1242.942017)
(702940 4730955 1196.550049)
(702780 4731115 1112.467041)
(702940 4732395 1177.338013)
(702940 4732555 1178.906006)
(702780 4732555 1077)
(702780 4732715 1072.333008)
(702780 4732875 1055.910034)
(702940 4732875 1133.353027)
(702780 4734475 1139.032959)
(702940 4734475 1251.953003)
(702780 4734635 1163.371948)
(702940 4734635 1213.383057)
(702940 4735595 1400.844971)
(702780 4735755 1481.494995)
(702940 4736875 1462.666992)
(702940 4737035 1538.479004)
(702940 4737515 1567.345947)
(702940 4737675 1617.80896)
(702940 4737835 1631.602051)
(702780 4738155 1432.505981)
(702940 4738155 1547.85498)
(702940 4738795 1464.348022)
(702940 4738955 1488.154053)
(702940 4739115 1481.453979)
(702940 4739275 1491.473999)
(702940 4739435 1450.187988)
(702940 4728555 1018.208984)
(703100 4728555 1040.979004)
(703100 4728715 1091.39502)
(703100 4728875 1122.677002)
(703100 4729035 1157.121948)
(702940 4729035 1109.197021)
(703100 4729675 1195.536987)
(702940 4729835 1181.198975)
(702940 4729995 1182.293945)
(703100 4729995 1268.578003)
(703100 4730155 1318.925049)
(702940 4730155 1196.286011)
(703100 4730315 1349.755981)
(703100 4730955 1299.352051)
(702940 4732235 1159.947021)
(702940 4734155 1219.552002)
(703100 4734155 1332.185059)
(703100 4734315 1319.753052)
(702940 4734315 1217.640991)
(703100 4734635 1309.275024)
(702940 4734795 1168.589966)
(703100 4734795 1198.885986)
(702940 4734955 1226.47998)
(703100 4734955 1165.103027)
(703100 4735435 1195.067993)
(703100 4735595 1276.097046)
(703100 4736715 1279.55896)
(703100 4736875 1452.020996)
(703100 4737035 1460.417969)
(703100 4737515 1457.396973)
(703100 4737675 1554.833008)
(703100 4737835 1533.360962)
(703100 4737995 1518.567017)
(702940 4738475 1406.920044)
(703100 4738475 1426.859985)
(703100 4738635 1400.06604)
(703100 4738795 1411.63501)
(703100 4738955 1430.494995)
(703100 4739435 1472.155029)
(703100 4739595 1531.847046)
(702940 4739595 1491.177002)
(703260 4728555 1098.563965)
(703260 4729675 1249.087036)
(703260 4730795 1332.837036)
(703260 4730955 1390.54895)
(703260 4731115 1425.599976)
(703100 4731115 1349.284058)
(703260 4732235 1444.535034)
(703260 4732395 1443.543945)
(703260 4733515 1261.654053)
(703260 4733675 1381.291992)
(703260 4733835 1463.873047)
(703100 4735115 1172.569946)
(703260 4735115 1189.547974)
(703260 4735435 1179.034058)
(703260 4735595 1175.004028)
(703260 4735915 1198.562012)
(703260 4736075 1205.545044)
(703260 4736395 1209.80896)
(703260 4736555 1221.36499)
(703260 4736715 1229.160034)
(703260 4736875 1344.777954)
(703260 4737035 1425.983032)
(703260 4737355 1325.855957)
(703260 4737515 1407.375977)
(703260 4737675 1400.490967)
(703260 4737835 1423.487061)
(703260 4738635 1434.10498)
(703260 4738795 1394.579956)
(703100 4739115 1441.963013)
(703260 4739275 1504.067993)
(703260 4739435 1574.843994)
(703420 4728395 1183.290039)
(703420 4728555 1135.253052)
(703420 4728875 1214.765015)
(703420 4729355 1264.848022)
(703420 4729515 1274.762939)
(703420 4729675 1291.843994)
(703420 4730955 1464.161011)
(703420 4732395 1582.616943)
(703420 4733355 1253.239014)
(703420 4733515 1270.04895)
(703420 4733675 1369.937012)
(703420 4733995 1601.781006)
(703420 4735435 1207.444946)
(703420 4735595 1181.178955)
(703420 4735915 1196.047974)
(703420 4736075 1196.457031)
(703420 4736235 1196.255005)
(703420 4736395 1196.199951)
(703420 4736715 1218.978027)
(703420 4737195 1279.281006)
(703420 4737355 1280.177979)
(703420 4737515 1361.942993)
(703420 4737675 1304.067993)
(703420 4737835 1314.109985)
(703420 4737995 1306.072998)
(703420 4738155 1338.848022)
(703420 4738315 1385.327026)
(703420 4738475 1469.735962)
(703420 4738635 1490.45105)
(703420 4738795 1412.323975)
(703420 4739115 1429.659058)
(703580 4728715 1171.932983)
(703580 4728875 1190.560059)
(703580 4729355 1277.801025)
(703580 4729515 1300.389038)
(703580 4730955 1533.597046)
(703580 4731115 1599.124023)
(703420 4731115 1519.095947)
(703580 4731275 1653.652954)
(703420 4731275 1572.147949)
(703420 4732235 1572.741943)
(703580 4732235 1724.347046)
(703580 4733675 1361.759033)
(703580 4733835 1483.517944)
(703580 4734155 1695.166992)
(703580 4735115 1327.588013)
(703580 4735435 1231.227051)
(703580 4737035 1211.042969)
(703580 4737355 1234.734009)
(703580 4737515 1243.944946)
(703580 4737675 1257.078979)
(703580 4737835 1239.449951)
(703580 4738155 1285.973999)
(703580 4738315 1355.302979)
(703580 4738475 1466.421021)
(703580 4739115 1425.947021)
(703580 4739435 1620.376953)
(703580 4739595 1724.529053)
(703420 4739595 1686.07605)
(703740 4725515 1123.786987)
(703740 4725995 1174.197998)
(703740 4726155 1147.614014)
(703580 4726155 1186.157959)
(703580 4726315 1223.489014)
(703740 4726315 1249.843018)
(703740 4726475 1313.401978)
(703580 4726475 1262.22998)
(703580 4726635 1321.120972)
(703740 4726795 1392.381958)
(703740 4726955 1462.000977)
(703580 4726955 1439.33606)
(703740 4728875 1193.958008)
(703740 4729035 1215.725952)
(703740 4729515 1295.504028)
(703740 4732715 1671.034058)
(703740 4734315 1786.802979)
(703740 4734475 1772.756958)
(703740 4734955 1468.72998)
(703740 4735275 1373.89502)
(703580 4736715 1195.77002)
(703740 4736715 1258.254028)
(703740 4736875 1284.958984)
(703580 4736875 1198.93103)
(703580 4737195 1229.989014)
(703740 4737195 1247.167969)
(703740 4737355 1238.526001)
(703740 4738315 1288.754028)
(703740 4738475 1348.135986)
(703740 4738635 1391.858032)
(703580 4739755 1765.807007)
(703580 4739915 1827.380005)
(703740 4739915 1872.302979)
(703900 4725355 1147.276001)
(703900 4725995 1241.168945)
(703900 4726155 1229.741943)
(703900 4726795 1395.269043)
(703740 4727115 1491.579956)
(703900 4728555 1162.791016)
(703900 4729675 1356.374023)
(703900 4733515 1344.300049)
(703900 4734315 1779.901978)
(703900 4735115 1477.708008)
(703900 4735275 1489.311035)
(703900 4736875 1384.22998)
(703900 4737035 1405.206055)
(703900 4737195 1313.129028)
(703900 4737355 1311.750977)
(703740 4737515 1266.251953)
(703900 4737515 1324.5)
(703900 4738315 1320.083008)
(703900 4738475 1297.238037)
(703900 4738635 1295.084961)
(703900 4738795 1316.55896)
(703740 4740075 1919.97998)
(703900 4740075 1922.639038)
(704060 4725195 1094.869995)
(704060 4726155 1307.046021)
(704060 4726315 1303.30603)
(704060 4727115 1545.772949)
(704060 4727275 1589.489014)
(703900 4728715 1198.161011)
(704060 4731115 1834.402954)
(704060 4731435 1814.612061)
(704060 4731595 1788.287964)
(704060 4731915 1787.026978)
(704060 4732075 1823.311035)
(704060 4732395 1900.796021)
(703900 4733675 1340.465942)
(704060 4734475 1872.848022)
(704060 4734955 1641.584961)
(704060 4735115 1544.64502)
(704060 4736875 1415.38501)
(704060 4737195 1417.573975)
(704060 4737355 1480.421021)
(704060 4738475 1343.884033)
(704060 4738795 1332.600952)
(704060 4738955 1348.089966)
(704060 4740075 1816.171997)
(703900 4740235 2001.884033)
(704220 4725035 1090.093994)
(704220 4726315 1366.990967)
(704220 4726475 1380.958984)
(704220 4728395 1214.988037)
(704220 4728555 1215.574951)
(704220 4730955 1827.838989)
(704220 4731115 1851.515991)
(704220 4731275 1875.151001)
(704220 4731595 1816.858032)
(704220 4731755 1817.115967)
(704220 4731915 1842.339966)
(704220 4732075 1886.744019)
(704220 4732235 1956.07605)
(704220 4732395 1998.329956)
(704220 4732555 1991.182983)
(704220 4732715 1986.597046)
(704220 4733835 1516.70105)
(704220 4734315 1851.30896)
(704220 4734955 1662.784058)
(704220 4735115 1636.628052)
(704220 4737035 1525.494995)
(704220 4737355 1558.327026)
(704060 4737515 1411.560059)
(704220 4738955 1368.83606)
(704220 4739275 1399.406982)
(704220 4740075 1714.843994)
(704060 4740235 1874.319946)
(704380 4721675 1048.829956)
(704380 4722315 901.9039917)
(704380 4722475 946.0670166)
(704380 4724875 1136.713989)
(704380 4725035 1118.456055)
(704380 4725355 1155.540039)
(704380 4726635 1470.378052)
(704380 4728395 1224.297974)
(704380 4728555 1223.764038)
(704380 4728715 1252.105957)
(704380 4730635 1763.796997)
(704380 4730795 1830.000977)
(704380 4731275 1896.817017)
(704380 4731435 1861.01001)
(704380 4731595 1835.161987)
(704380 4731755 1860.082031)
(704380 4732075 1963.206055)
(704380 4732235 2015.478027)
(704380 4732395 2090.706055)
(704380 4732715 2130.800049)
(704380 4732875 1976.909058)
(704380 4733675 1414.125977)
(704380 4733995 1637.48999)
(704380 4734475 2010.925049)
(704380 4734795 1869.796997)
(704380 4734955 1774.012939)
(704380 4735115 1794.375977)
(704380 4737035 1591.227051)
(704380 4737355 1583.203003)
(704220 4737515 1422.090942)
(704380 4739115 1414.474976)
(704380 4739275 1402.787964)
(704380 4739435 1398.881958)
(704380 4739595 1440.150024)
(704380 4739755 1513.225952)
(704380 4739915 1537.261963)
(704380 4740075 1598.713989)
(704220 4740235 1749.379028)
(704380 4740235 1713.859009)
(704220 4740395 1871.505005)
(704385 4721195 1193.69104)
(704540 4721835 964.8270264)
(704540 4722155 910.2559814)
(704540 4722315 905.5380249)
(704540 4722475 921.1259766)
(704540 4724555 1282.780029)
(704380 4725515 1186.712036)
(704540 4725515 1224.708984)
(704540 4726475 1470.244995)
(704540 4726635 1508.228027)
(704540 4728395 1239.004028)
(704540 4728555 1232.760986)
(704540 4729995 1632.380005)
(704540 4730155 1740.555054)
(704540 4730315 1734.895996)
(704540 4730475 1744.373047)
(704540 4730635 1816.77002)
(704540 4730795 1868.182007)
(704540 4730955 1886.781006)
(704540 4731755 1912.587036)
(704380 4731915 1911.555054)
(704540 4732075 2036.859985)
(704540 4732235 2085.564941)
(704540 4732875 2048.279053)
(704540 4733835 1548.495972)
(704540 4734315 1841.704956)
(704540 4734475 1966.508057)
(704540 4736875 1644.406982)
(704540 4737035 1715.734009)
(704540 4737195 1769.438965)
(704540 4739435 1502.842041)
(704540 4739595 1440.411011)
(704540 4739755 1465.144043)
(704540 4739915 1498.515015)
(704540 4740075 1560.541016)
(704540 4740235 1630.333984)
(704540 4740395 1755.162964)
(704540 4740555 1861.553955)
(704380 4740555 1975.484985)
(704700 4721675 994.2680054)
(704700 4721835 980.1560059)
(704700 4722155 908.6929932)
(704700 4725195 1231.771973)
(704700 4725355 1239.166992)
(704700 4725515 1255.218994)
(704540 4725675 1258.761963)
(704700 4725675 1284.203979)
(704540 4725835 1318.276001)
(704540 4725995 1350.598022)
(704540 4726315 1419.852051)
(704700 4726315 1447.555054)
(704700 4726955 1616.857056)
(704700 4727115 1677.621948)
(704700 4728395 1250.224976)
(704700 4728555 1249.828003)
(704700 4729835 1674.968994)
(704700 4730155 1724.265991)
(704700 4730315 1741.386963)
(704700 4730475 1779.819946)
(704700 4732875 2026.765991)
(704700 4733035 1900.421997)
(704700 4733835 1597.751953)
(704700 4733995 1702.661011)
(704700 4734155 1830.734985)
(704700 4734315 1952.224976)
(704700 4734475 1978.071045)
(704700 4735115 1929.609985)
(704700 4735275 1981.354004)
(704700 4736075 1813.687988)
(704700 4737035 1818.435059)
(704700 4739915 1477.353027)
(704700 4740075 1512.592041)
(704700 4740395 1663.531006)
(704540 4740715 1893.333984)
(704860 4721355 1110.212036)
(704860 4721515 1075.208008)
(704700 4721515 1047.375)
(704860 4722955 968.3590088)
(704860 4724235 1138.230957)
(704860 4725195 1256.182983)
(704860 4725355 1291.57605)
(704860 4725995 1401.284058)
(704700 4726155 1405.026978)
(704860 4726155 1433.402954)
(704860 4726315 1484.255005)
(704860 4726635 1570.546021)
(704860 4726955 1651.557007)
(704860 4727115 1709.621948)
(704860 4728395 1270.630981)
(704860 4728555 1268.369995)
(704700 4729995 1704.583008)
(704860 4729995 1720.435059)
(704860 4730155 1726.311035)
(704860 4730315 1758.020996)
(704860 4730475 1781.618042)
(704700 4730635 1875.921021)
(704860 4733195 1875.43103)
(704860 4733675 1520.25)
(704860 4733835 1658.072021)
(704860 4733995 1729.197021)
(704860 4734155 1832.240967)
(704860 4734315 1997.185059)
(704860 4734475 2107.138916)
(704860 4735115 2030.000977)
(704860 4735275 2055.425049)
(704860 4737035 1927.646973)
(704860 4737195 1802.139038)
(704860 4740235 1532.680054)
(704860 4740715 1817.177979)
(704860 4740875 1939.97998)
(704700 4740875 1938.064941)
(704865 4721195 1149.19397)
(705020 4722155 912.5629883)
(705020 4722475 971.632019)
(705020 4723275 988.7739868)
(705020 4723915 1058.534058)
(705020 4724075 1138.051025)
(705020 4724235 1206.353027)
(705020 4724555 1319.780029)
(705020 4724875 1183.546997)
(705020 4725035 1220.630981)
(705020 4725195 1285.079956)
(705020 4725995 1431.322998)
(705020 4726155 1463.214966)
(705020 4726315 1517.409058)
(705020 4726635 1602.862061)
(705020 4726955 1687.020996)
(705020 4727115 1743.687988)
(705020 4730475 1814.904053)
(705020 4733035 2002.02002)
(705020 4733515 1713.993042)
(705020 4733675 1554.192993)
(705020 4733835 1616.150024)
(705020 4733995 1793.686035)
(705020 4734155 1878.654053)
(705020 4735275 2112.779053)
(705020 4735435 2237.922119)
(705020 4736395 2067.798096)
(705020 4736555 2162.922119)
(705020 4736715 2066.218018)
(705020 4736875 1918.672974)
(705020 4737035 1838.417969)
(705020 4737355 1512.475952)
(705020 4740875 1838.109985)
(705180 4721995 917.3309937)
(705180 4722315 944.7119751)
(705180 4723435 990.0109863)
(705180 4723755 1032.407959)
(705180 4723915 1097.145996)
(705180 4724075 1147.240967)
(705180 4724555 1347.682983)
(705180 4724715 1306.67395)
(705180 4724875 1218.381958)
(705180 4725835 1410.454956)
(705180 4725995 1445.706055)
(705180 4726475 1592.901001)
(705180 4727115 1783.411987)
(705020 4730635 1923.199951)
(705180 4733675 1588.793945)
(705180 4734155 1944.30896)
(705020 4734315 1941.107056)
(705180 4734315 2064.88501)
(705180 4735435 2288.48291)
(705180 4735595 2194.2229)
(705180 4735755 2095.059082)
(705180 4735915 2059.806885)
(705180 4736075 2103.124023)
(705180 4736235 2159.181885)
(705180 4736875 1883.949951)
(705180 4737035 1840.107056)
(705180 4737195 1620.969971)
(705180 4740875 1813.119019)
(705020 4741035 1963.630005)
(705340 4721995 921.8889771)
(705340 4722315 992.6660156)
(705340 4722475 1054.03894)
(705340 4722635 1091.53894)
(705340 4723755 1020.692017)
(705340 4724715 1339.324951)
(705340 4724875 1259.579956)
(705180 4725035 1221.812988)
(705340 4725035 1217.171997)
(705340 4725195 1254.057983)
(705340 4726475 1613.498047)
(705180 4726955 1724.858032)
(705340 4730635 1966.005005)
(705340 4733995 1841.021973)
(705180 4735275 2199.064941)
(705340 4735275 2304.189941)
(705340 4735595 2279.409912)
(705340 4735915 2145.553955)
(705340 4736075 2247.610107)
(705180 4736395 2183.595947)
(705340 4736555 2155.544922)
(705340 4736715 1969.629028)
(705340 4736875 1793.579956)
(705340 4737195 1557.796997)
(705340 4740395 1535.983032)
(705340 4740555 1559.337036)
(705180 4741035 1937.890015)
(705500 4721995 943.6209717)
(705500 4722155 983.3790283)
(705340 4722155 936.0910034)
(705500 4722315 998.1959839)
(705500 4722475 1042.020996)
(705500 4722635 1098.090942)
(705500 4722955 1166.208008)
(705500 4726475 1638.422974)
(705340 4726635 1669.406006)
(705500 4726955 1783.633057)
(705500 4727115 1836.713013)
(705500 4730315 1832.682007)
(705500 4730475 1940.203003)
(705500 4735755 2277.219971)
(705500 4735915 2286.475098)
(705500 4736075 2333.413086)
(705660 4721675 941.0009766)
(705660 4722955 1210.395996)
(705660 4723275 1219.508057)
(705660 4723755 1070.280029)
(705660 4724875 1338.68103)
(705660 4725195 1337.464966)
(705660 4725515 1308.435059)
(705660 4726955 1793.670044)
(705660 4730155 1789.264038)
(705660 4730315 1871.506958)
(705660 4730475 2004.545044)
(705500 4730635 1997.11499)
(705660 4741035 1879.209961)
(705820 4721675 937.2009888)
(705660 4721835 930.835022)
(705820 4721835 960.5410156)
(705660 4721995 962.2800293)
(705820 4723275 1201.109985)
(705820 4723435 1238.295044)
(705660 4723915 1059.63501)
(705820 4725195 1420.062012)
(705820 4725355 1395.266968)
(705820 4725515 1391.922974)
(705820 4725675 1390.557983)
(705820 4726955 1801.665039)
(705820 4727115 1859.916992)
(705820 4729835 1656.207031)
(705820 4730155 1785.261963)
(705820 4730315 1913.064941)
(705820 4730475 2014.958984)
(705660 4730635 2030.30603)
(705820 4740555 1547.20105)
(705820 4740715 1603.869995)
(705820 4740875 1720.161987)
(705980 4721355 956.4279785)
(705980 4721675 940.5139771)
(705980 4721835 988.8369751)
(705980 4721995 1037.610962)
(705980 4723435 1225.906982)
(705980 4723595 1270.823975)
(705980 4723915 1167.630005)
(705820 4724075 1083.907959)
(705980 4724075 1162.187012)
(705980 4724235 1149.046997)
(705820 4724395 1134.812012)
(705980 4724395 1146.534058)
(705980 4725675 1489.296021)
(705980 4725835 1445.75)
(705980 4726475 1640.987061)
(705980 4729835 1701.378052)
(705980 4730315 1876.609985)
(705980 4730475 1940.22998)
(705980 4740555 1569.699951)
(705980 4740715 1604.147949)
(705980 4740875 1725.196045)
(705820 4741035 1859.729004)
(705985 4721195 990.2600098)
(705980 4722155 1067.704956)
(706140 4722155 1087.238037)
(706140 4723595 1278.031006)
(706140 4723755 1257.244995)
(706140 4724075 1234.584961)
(706140 4724235 1202.436035)
(706140 4725995 1534.958008)
(706140 4726155 1531.021973)
(706140 4726315 1582.16394)
(706140 4727115 1873.977051)
(706140 4729835 1768.079956)
(705980 4729995 1730.44397)
(706140 4730155 1834.791016)
(706140 4740715 1581.305054)
(706140 4740875 1660.985962)
(705980 4741035 1830.004028)
(706140 4741035 1720.499023)
(706300 4721355 1025.027954)
(706300 4721515 1003.322998)
(706140 4721515 974.9420166)
(706300 4721835 967.1350098)
(706300 4722155 1096.286987)
(706140 4722315 1108.779053)
(706300 4723595 1248.718994)
(706300 4723755 1297.901001)
(706300 4724075 1317.535034)
(706140 4724395 1159.327026)
(706300 4724395 1214.267944)
(706300 4724715 1340.10498)
(706140 4724875 1319.084961)
(706300 4725035 1395.005005)
(706140 4725195 1409.037964)
(706300 4725835 1624.593018)
(706300 4725995 1636.547974)
(706300 4726955 1847.525024)
(706300 4727275 1969.892944)
(706300 4728555 1813.043945)
(706300 4729835 1822.822998)
(706300 4729995 1941.487061)
(706300 4730155 1898.980957)
(706140 4730315 1959.634033)
(706300 4740715 1662.348999)
(706300 4740875 1629.72998)
(706460 4721355 1059.81604)
(706300 4721675 949.2639771)
(706460 4722155 1083.911011)
(706460 4723915 1379.22998)
(706460 4724075 1362.383057)
(706460 4724235 1306.66394)
(706460 4724715 1378.624023)
(706460 4724875 1422.444946)
(706300 4725195 1434.844971)
(706460 4725195 1474.745972)
(706460 4726955 1875.234009)
(706460 4727115 1926.041016)
(706460 4727275 1980.55896)
(706460 4727435 1975.526978)
(706460 4728555 1868.786987)
(706460 4729675 1790.52002)
(706460 4729835 1931.708008)
(706460 4729995 1995.329956)
(706460 4730155 2039.078979)
(706300 4730315 2005.786011)
(706305 4721195 1021.156006)
(706460 4722315 1134.569946)
(706620 4722315 1095.457031)
(706460 4722475 1183.363037)
(706460 4722635 1237.800049)
(706620 4722635 1242.911987)
(706620 4723915 1423.984985)
(706620 4724235 1371.037964)
(706620 4724395 1365.334961)
(706460 4724555 1319.822998)
(706620 4724715 1433.425049)
(706620 4724875 1484.079956)
(706620 4725195 1520.442993)
(706460 4725355 1531.607056)
(706620 4725355 1572.83606)
(706620 4727115 1978.177002)
(706620 4727435 2001.31897)
(706620 4727595 1954.890991)
(706620 4728235 1835.795044)
(706620 4728395 1894.590942)
(706620 4728555 1886.17395)
(706780 4722475 1175.253052)
(706780 4723915 1394.656982)
(706780 4724075 1388.936035)
(706780 4724395 1398.927002)
(706620 4724555 1382.665039)
(706780 4724555 1375.162964)
(706780 4724715 1364.848999)
(706780 4725035 1487.297974)
(706780 4725195 1526.088989)
(706780 4727595 2028.014038)
(706780 4727755 1951.993042)
(706780 4728395 1945.868042)
(706780 4728555 1867.881958)
(706780 4729355 1696.150024)
(706780 4729515 1762.725952)
(706780 4729675 1852.313965)
(706940 4722315 1097.312988)
(706940 4722475 1107.942017)
(706940 4723595 1439.426025)
(706940 4723755 1407.713989)
(706780 4723755 1425.041992)
(706940 4724075 1305.464966)
(706780 4724235 1384.098022)
(706940 4724235 1322.626953)
(706940 4724395 1318.594971)
(706940 4724555 1302.828979)
(706940 4724715 1334.223022)
(706780 4725515 1624.061035)
(706940 4725515 1554.613037)
(706780 4725675 1641.072021)
(706940 4725675 1554.670044)
(706940 4727755 2015.771973)
(706940 4728075 1916.180054)
(706940 4728235 1976.295044)
(706940 4728395 1999.958984)
(706940 4728555 1923.275024)
(706940 4728875 1716.099976)
(706940 4729035 1698.473999)
(706940 4729355 1691.682983)
(706940 4729515 1773.089966)
(707100 4721995 977.565979)
(707100 4722155 1034.785034)
(707100 4723755 1357.199951)
(707100 4724235 1271.920044)
(707100 4724555 1231.473022)
(707100 4724715 1251.375977)
(707100 4725195 1382.892944)
(706940 4725355 1505.862061)
(707100 4725515 1448.827026)
(707100 4725835 1520.646973)
(707100 4725995 1566.240967)
(706940 4725995 1649.709961)
(707100 4727915 2032.969971)
(707100 4728075 2008.782959)
(707100 4728715 1790.359009)
(707100 4729035 1759.891968)
(707100 4729195 1761.668945)
(707100 4729355 1712.177979)
(707100 4729515 1816.779053)
(707100 4729675 1913.280029)
(706940 4729835 1952.765991)
(707260 4721995 992.2479858)
(707260 4723435 1296.44397)
(707100 4723595 1375.876953)
(707260 4724075 1193.162964)
(707260 4724235 1201.677979)
(707260 4724395 1174.003052)
(707260 4725195 1310.973022)
(707100 4726155 1608.78894)
(707260 4728555 1946.482056)
(707260 4728715 1868.282959)
(707100 4728875 1751.651001)
(707260 4729355 1755.265991)
(707260 4729515 1863.968994)
(707100 4729835 1968.009033)
(707260 4729835 1993.46106)
(707420 4721995 1004.758972)
(707260 4722155 1024.660034)
(707420 4723595 1259.628052)
(707420 4723915 1214.782959)
(707420 4724555 1223.147949)
(707420 4724715 1240.932983)
(707260 4724715 1197.357056)
(707260 4725035 1245.541016)
(707420 4725035 1244.296021)
(707420 4725995 1405.345947)
(707420 4726155 1464.957031)
(707420 4729195 1769.891968)
(707420 4729515 1909.535034)
(707580 4721995 1009.513977)
(707420 4722155 1000.174011)
(707580 4723435 1190.332031)
(707580 4723595 1205.328979)
(707580 4723915 1149.85498)
(707580 4724875 1333.435059)
(707580 4725995 1451.19104)
(707580 4729355 1855.942993)
(707740 4721995 1027.60498)
(707580 4722155 999.8449707)
(707740 4723435 1129.83606)
(707740 4723595 1166.20105)
(707740 4724715 1313.129028)
(707580 4726155 1420.661987)
(707580 4726315 1478.990967)
(707740 4729355 1899.394043)
(707740 4722155 1002.122009)
(707900 4723435 1084.740967)
(707900 4724875 1383.69104)
(707900 4725035 1471.484985)
(707900 4726315 1611.634033)
(708060 4721355 1258.563965)
(708060 4723275 1064.467041)
(708060 4723435 1085.879028)
(708060 4723595 1118.630981)
(707900 4723595 1085.277954)
(707900 4723755 1094.978027)
(708060 4723755 1139.296997)
(707900 4724235 1180.582031)
(707900 4724555 1221.834961)
(708060 4724555 1240.406006)
(708060 4724875 1354.964966)
(708060 4725035 1397.598999)
(708060 4725195 1504.140015)
(708060 4726155 1700.848022)
(708060 4726315 1719.01001)
(707900 4726475 1610.46106)
(708060 4726475 1704.546021)
(708065 4721195 1275.587036)
(708220 4721355 1200.848999)
(708220 4722155 1022.697998)
(708060 4722315 1026.015991)
(708220 4722475 1096.615967)
(708060 4722795 1072.56897)
(708220 4722795 1042.880005)
(708060 4722955 1055.885986)
(708220 4723275 1161.379028)
(708220 4723435 1166.608032)
(708220 4723755 1195.706055)
(708060 4723915 1175.262939)
(708060 4724075 1180.029053)
(708220 4724075 1248.062988)
(708220 4724235 1303.360962)
(708060 4724715 1266.207031)
(708220 4724715 1287.026001)
(708220 4724875 1288.161011)
(708220 4725035 1377.814941)
(708220 4725195 1454.154053)
(708220 4725675 1706.85498)
(708220 4725835 1728.196045)
(708220 4726315 1823.347046)
(708060 4726635 1703.645996)
(708220 4726635 1818.225952)
(708060 4726795 1823.364014)
(708220 4726795 1850.078979)
(708380 4722955 1102.092041)
(708380 4723275 1103.469971)
(708380 4724075 1329.166016)
(708380 4724875 1340.718994)
(708380 4725035 1341.786011)
(708380 4725515 1602.994995)
(708380 4725835 1755.547974)
(708540 4722475 1200.197021)
(708540 4723435 1170.406006)
(708540 4723595 1221.154053)
(708380 4723595 1271.23999)
(708540 4723755 1257.974976)
(708380 4723755 1276.130981)
(708540 4723915 1322.880005)
(708540 4724075 1393.100952)
(708540 4724235 1407.970947)
(708540 4724395 1450.496948)
(708540 4725355 1499.547974)
(708540 4725515 1602.089966)
(708380 4725675 1692.279053)
(708700 4723435 1141.862061)
(708700 4723755 1207.296021)
(708700 4723915 1281.939941)
(708700 4724075 1344.593994)
(708700 4724235 1387.583984)
(708700 4724395 1466.743042)
(708700 4724715 1554.234009)
(708700 4724875 1515.477051)
(708700 4725515 1591.011963)
(708860 4723755 1200.676025)
(708860 4724075 1293.125)
(708860 4724235 1355.333984)
(708860 4724715 1551.266968)
(708860 4724875 1602.425049)
(708860 4725355 1538.551025)