/*--------------------------------*- C++ -*----------------------------------*\
  =========                 |
  \\      /  F ield         | OpenFOAM: The Open Source CFD Toolbox
   \\    /   O peration     | Website:  https://openfoam.org
    \\  /    A nd           | Version:  6
     \\/     M anipulation  |
\*---------------------------------------------------------------------------*/
FoamFile
{
    version     2.0;
    format      ascii;
    class       featureEdgeMesh;
    location    "constant/triSurface";
    object      Bosque_mixto.eMesh;
}
// * * * * * * * * * * * * * * * * * * * * * * * * * * * * * * * * * * * * * //


// points:

975
(
(702780 4735595 1496.650024)
(703260 4731595 1466.906006)
(712380 4726955 1574.781982)
(702620 4725515 1011.620972)
(702460 4725675 1052.583984)
(702620 4726155 1196.385986)
(702620 4726315 1192.149048)
(702460 4726475 1156.588989)
(702620 4726475 1183.218018)
(702460 4726635 1169.967041)
(702460 4727275 1140.814941)
(702460 4728715 1021.664978)
(702620 4728715 1039.482056)
(702460 4728875 977.6599731)
(702620 4728875 1039.327026)
(702460 4729035 981.1389771)
(702460 4730155 1024.161011)
(702620 4730155 1049.203003)
(702620 4730315 998.8209839)
(702460 4730315 1033.571045)
(702460 4732875 1149.563965)
(702620 4732875 1079.984985)
(702460 4735435 1504.975952)
(702460 4735915 1719.387939)
(702620 4736075 1567.187012)
(702460 4736235 1646.708984)
(702460 4736395 1514.324951)
(702780 4726155 1194.722046)
(702780 4726315 1225.749023)
(702780 4726475 1217.406006)
(702780 4727275 1169.446045)
(702780 4728715 1068.238037)
(702780 4728875 1083.217041)
(702780 4730315 1121.290039)
(702620 4730955 1027.199951)
(702780 4730955 1117.895996)
(702780 4731115 1112.467041)
(702780 4732555 1077)
(702780 4732715 1072.333008)
(702780 4732875 1055.910034)
(702780 4734475 1139.032959)
(702780 4734635 1163.371948)
(702780 4734795 1254.597046)
(702780 4735755 1481.494995)
(702780 4735915 1450.522949)
(702780 4736075 1412.708984)
(702940 4725515 1013.132996)
(702940 4725675 1049.843018)
(702940 4725835 1071.990967)
(702940 4726315 1203.203979)
(702940 4726475 1261.062012)
(702940 4727115 1245.329956)
(702940 4728715 1075.447998)
(702940 4729035 1109.197021)
(702940 4729835 1181.198975)
(702940 4729995 1182.293945)
(702940 4730155 1196.286011)
(702940 4730315 1237.56897)
(702940 4730955 1196.550049)
(702940 4731115 1233.256958)
(702940 4732235 1159.947021)
(702940 4732395 1177.338013)
(702940 4732555 1178.906006)
(702940 4732875 1133.353027)
(702940 4734155 1219.552002)
(702940 4734315 1217.640991)
(702940 4734475 1251.953003)
(702940 4734635 1213.383057)
(702940 4734795 1168.589966)
(702940 4734955 1226.47998)
(702940 4735595 1400.844971)
(703100 4725675 1044.928955)
(703100 4725835 1087.390015)
(703100 4725995 1106.415039)
(702940 4727275 1192.090942)
(703100 4728875 1122.677002)
(703100 4729035 1157.121948)
(703100 4729675 1195.536987)
(703100 4729995 1268.578003)
(703100 4730155 1318.925049)
(703100 4730315 1349.755981)
(702940 4730475 1242.942017)
(703100 4730955 1299.352051)
(703100 4731115 1349.284058)
(703100 4731435 1386.868042)
(703100 4734155 1332.185059)
(703100 4734315 1319.753052)
(703100 4734635 1309.275024)
(703100 4734955 1165.103027)
(703100 4735435 1195.067993)
(703260 4725675 1050.863037)
(703260 4725835 1059.155029)
(703260 4725995 1060.732056)
(703260 4726315 1183.666016)
(703260 4732235 1444.535034)
(703260 4735435 1179.034058)
(703100 4735595 1276.097046)
(703420 4726315 1173.649048)
(703420 4726475 1230.891968)
(703420 4731435 1637.858032)
(703420 4731915 1591.994995)
(703420 4732235 1572.741943)
(703260 4732395 1443.543945)
(703420 4732395 1582.616943)
(703420 4733355 1253.239014)
(703420 4733515 1270.04895)
(703260 4733515 1261.654053)
(703260 4733675 1381.291992)
(703580 4726475 1262.22998)
(703580 4726635 1321.120972)
(703580 4726955 1439.33606)
(703580 4731755 1732.911011)
(703580 4732235 1724.347046)
(703420 4733675 1369.937012)
(703580 4733675 1361.759033)
(703740 4726475 1313.401978)
(703740 4726795 1392.381958)
(703740 4726955 1462.000977)
(703740 4727115 1491.579956)
(703580 4733835 1483.517944)
(703740 4737835 1305.590942)
(703740 4737995 1295.495972)
(703580 4737995 1261.657959)
(703900 4726795 1395.269043)
(703900 4733515 1344.300049)
(703900 4733675 1340.465942)
(703900 4737995 1360.858032)
(703740 4738155 1288.848022)
(703900 4738155 1388.10498)
(703740 4738315 1288.754028)
(703900 4738315 1320.083008)
(704060 4727115 1545.772949)
(704060 4727275 1589.489014)
(703900 4738475 1297.238037)
(704060 4738475 1343.884033)
(704220 4733835 1516.70105)
(704220 4738315 1460.254028)
(704220 4738795 1380.317017)
(704060 4738955 1348.089966)
(704220 4738955 1368.83606)
(704380 4733675 1414.125977)
(704380 4739115 1414.474976)
(704220 4739275 1399.406982)
(704385 4721195 1193.69104)
(704380 4721675 1048.829956)
(704380 4733995 1637.48999)
(704540 4738795 1501.657959)
(704540 4738955 1515.219971)
(704380 4739435 1398.881958)
(704540 4739435 1502.842041)
(704540 4739595 1440.411011)
(704380 4739595 1440.150024)
(704540 4739755 1465.144043)
(704380 4739755 1513.225952)
(704700 4721515 1047.375)
(704700 4721675 994.2680054)
(704700 4721835 980.1560059)
(704540 4721835 964.8270264)
(704700 4733675 1497.64502)
(704700 4738635 1653.737061)
(704700 4738795 1592.881958)
(704700 4739275 1640.467041)
(704700 4739595 1546.082031)
(704700 4739755 1490.141968)
(704860 4721355 1110.212036)
(704860 4721515 1075.208008)
(704865 4721195 1149.19397)
(705500 4722155 983.3790283)
(705500 4722315 998.1959839)
(705340 4722315 992.6660156)
(705500 4722475 1042.020996)
(705340 4722475 1054.03894)
(705500 4722635 1098.090942)
(705340 4722635 1091.53894)
(705660 4721835 930.835022)
(705660 4721995 962.2800293)
(705500 4721995 943.6209717)
(705500 4722955 1166.208008)
(705660 4722955 1210.395996)
(705820 4722955 1117.824951)
(705660 4723275 1219.508057)
(705820 4723275 1201.109985)
(705980 4721995 1037.610962)
(705980 4722155 1067.704956)
(705980 4722635 1066.849976)
(705980 4722795 1068.305054)
(705980 4722955 1091.394043)
(705980 4723115 1096.353027)
(705980 4723275 1139.123047)
(705820 4723435 1238.295044)
(705980 4723435 1225.906982)
(706140 4722155 1087.238037)
(706140 4722315 1108.779053)
(706140 4722635 1134.329956)
(706140 4723115 1140.897949)
(706140 4723275 1141.969971)
(706140 4723435 1181.602051)
(705980 4723595 1270.823975)
(706140 4723595 1278.031006)
(706300 4722155 1096.286987)
(706300 4722475 1151.470947)
(706300 4723435 1187.51001)
(706300 4723595 1248.718994)
(706140 4723755 1257.244995)
(706460 4722155 1083.911011)
(706460 4722315 1134.569946)
(706460 4722475 1183.363037)
(706460 4723595 1252.582031)
(706300 4723755 1297.901001)
(706460 4723755 1335.314941)
(706620 4722315 1095.457031)
(706620 4723755 1369.123047)
(706460 4723915 1379.22998)
(706780 4722475 1175.253052)
(706620 4722635 1242.911987)
(706620 4722955 1304.651978)
(706780 4722955 1290.503052)
(706940 4722475 1107.942017)
(706780 4723275 1365.767944)
(706940 4723275 1370.392944)
(707100 4722155 1034.785034)
(706940 4722315 1097.312988)
(706940 4723435 1432.614014)
(707100 4721995 977.565979)
(707260 4721995 992.2479858)
(707260 4722155 1024.660034)
(707420 4721995 1004.758972)
(707420 4722155 1000.174011)
(707420 4724235 1144.428955)
(707260 4724235 1201.677979)
(707580 4721995 1009.513977)
(707580 4722155 999.8449707)
(707580 4723435 1190.332031)
(707420 4723595 1259.628052)
(707580 4723595 1205.328979)
(707420 4723915 1214.782959)
(707580 4723915 1149.85498)
(707740 4721995 1027.60498)
(707740 4722155 1002.122009)
(707740 4723435 1129.83606)
(707740 4723595 1166.20105)
(707900 4723435 1084.740967)
(707900 4723595 1085.277954)
(707900 4723755 1094.978027)
(708060 4722315 1026.015991)
(708060 4722795 1072.56897)
(708060 4722955 1055.885986)
(708060 4723275 1064.467041)
(708060 4723435 1085.879028)
(708220 4722155 1022.697998)
(708220 4722795 1042.880005)
(709020 4728075 1858.177979)
(709340 4727915 1760.810059)
(709340 4728075 1834.949951)
(709500 4727595 1638.162964)
(709500 4728075 1746.44104)
(709500 4728235 1766.56897)
(709340 4728235 1846.026001)
(709660 4727595 1618.899048)
(709660 4727755 1663.224976)
(709500 4727915 1736.953979)
(709500 4728395 1733.098999)
(709660 4728395 1614.854004)
(709660 4728555 1644.786011)
(709500 4728555 1700.83606)
(709820 4727435 1587.979004)
(709820 4727595 1562.666016)
(709820 4728395 1540.995972)
(709820 4728555 1555.131958)
(709660 4728715 1708.037964)
(709980 4727595 1481.296997)
(709980 4728235 1491.68103)
(709980 4728395 1505.339966)
(709980 4728555 1518.857056)
(709820 4728715 1616.515015)
(709985 4721195 1486.480957)
(710140 4721355 1531.129028)
(710300 4721355 1556.237061)
(710305 4721195 1534.06604)
(710465 4721195 1476.78894)
(710625 4721195 1429.446045)
(710620 4721355 1495.505981)
(710780 4726155 1435.23999)
(710780 4726315 1426.954956)
(710620 4726315 1360.676025)
(710620 4726475 1393.734009)
(710780 4726475 1386.802002)
(710785 4721195 1402.642944)
(710780 4721355 1463.208984)
(710940 4726155 1536.416992)
(710940 4726475 1407.98999)
(710780 4726635 1468.087036)
(711100 4726155 1633.38501)
(711260 4725995 1665.588013)
(711260 4726475 1444.817993)
(711420 4725995 1745.557983)
(711420 4726155 1680.159058)
(711420 4726475 1482.062988)
(711260 4726635 1495.526001)
(711580 4725995 1820.425049)
(711420 4726635 1504.887939)
(711580 4726635 1504.458984)
(711740 4725995 1837.213013)
(711740 4726155 1774.46106)
(711740 4726795 1570.386963)
(711580 4726955 1622.704956)
(711900 4725995 1875.359009)
(711900 4726155 1795.791992)
(711900 4726795 1561.614014)
(711740 4726955 1636.373047)
(711900 4726955 1651.490967)
(712060 4726635 1569.516968)
(712060 4726795 1540.234985)
(712060 4726955 1616.213013)
(711900 4727115 1740.192017)
(712220 4726155 1860.317017)
(712220 4726315 1794.89502)
(712220 4726795 1550.896973)
(712220 4726955 1590.975952)
(712060 4727115 1716.011963)
(712220 4727115 1659.993042)
(712060 4727275 1782.589966)
(712060 4727435 1865.071045)
(712220 4727435 1847.712036)
(712380 4726155 1898.405029)
(712380 4726475 1767.376953)
(712380 4726635 1658.418945)
(712380 4726795 1623.764038)
(712380 4727115 1645.243042)
(712380 4727275 1718.812012)
(712380 4727435 1797.412964)
(712540 4726475 1821.385986)
(712540 4726635 1781.944946)
(712540 4726955 1636.999023)
(712700 4726955 1702.915039)
(712700 4727115 1650.215942)
(712700 4727275 1712.041016)
(712860 4727115 1748.989014)
(712860 4727275 1699.416016)
(713985 4721195 1078.194946)
(714140 4721355 1100.083984)
(714300 4721355 1116.973999)
(714140 4722635 1526.30603)
(714300 4722635 1500.072021)
(714140 4722795 1552.08606)
(714300 4721515 1153.237061)
(714460 4721515 1157.650024)
(714460 4722315 1383.92395)
(714460 4722475 1444.458008)
(714300 4722475 1468.436035)
(714460 4722635 1485.011963)
(714300 4722795 1544.092041)
(714460 4722795 1526.504028)
(714620 4721355 1170.755005)
(714620 4721835 1246.665039)
(714620 4721995 1297.228027)
(714460 4721995 1312.277954)
(714460 4722155 1356.655029)
(714620 4722315 1394.891968)
(714620 4722475 1436.850952)
(714460 4722955 1576.780029)
(714620 4722955 1567.488037)
(714780 4721675 1199.651978)
(714780 4722955 1570.670044)
(714620 4723115 1615.57605)
(714780 4723115 1623.489014)
(714785 4721195 1249.703003)
(714940 4722955 1593.488037)
(715100 4722155 1443.473999)
(715100 4722795 1583.219971)
(715105 4721195 1335.987061)
(715260 4721355 1372.965942)
(715580 4721835 1429.916016)
(715580 4722155 1533.590942)
(715585 4721195 1529.108032)
(715740 4721355 1520.977051)
(715740 4721675 1481.508057)
(715900 4726955 1577.005981)
(715900 4727115 1636.074951)
(716060 4727115 1629.646973)
(716220 4726955 1544.162964)
(716380 4726955 1533.470947)
(716220 4727115 1642.561035)
(716540 4726795 1537.69397)
(716540 4726955 1536.144043)
(716700 4726795 1526.387939)
(716540 4727115 1626.167969)
(716700 4727115 1624.607056)
(716860 4726795 1489.397949)
(716860 4726955 1531.963013)
(717020 4726475 1579.82605)
(717020 4726795 1467.904053)
(717020 4726955 1527.182983)
(717020 4727115 1609.469971)
(716860 4727115 1607.139038)
(717180 4726795 1439.541016)
(717180 4726955 1489.573975)
(717340 4726955 1488.214966)
(717500 4726795 1391.635986)
(717660 4726795 1371.69104)
(717500 4726955 1468.207031)
(717820 4726795 1338.219971)
(717660 4726955 1489.468994)
(717820 4726955 1465.833984)
(718300 4739275 1336.899048)
(718300 4739435 1346.125)
(718140 4739435 1400.948975)
(718300 4739595 1352.334961)
(718300 4739755 1371.83606)
(718140 4739755 1446.784058)
(718300 4739915 1370.633057)
(718140 4739915 1448.751953)
(718460 4727595 1695.67395)
(718300 4727755 1772.633057)
(718300 4728235 1503.024048)
(718460 4728235 1452.197998)
(718460 4739435 1335.213013)
(718460 4739595 1318.656982)
(718460 4739755 1326.512939)
(718460 4739915 1316.765015)
(718460 4740075 1351.760986)
(718300 4740075 1399.213989)
(718300 4740235 1471.417969)
(718460 4740235 1417.922974)
(718620 4727275 1666.530029)
(718460 4727435 1706.437012)
(718620 4728075 1438.534058)
(718620 4739595 1293.177002)
(718620 4739755 1292.021973)
(718620 4739915 1295.542969)
(718620 4740075 1339.262939)
(718620 4740235 1390.43396)
(718460 4740395 1469.293945)
(718620 4740395 1401.426025)
(718620 4740555 1409.847046)
(718460 4740555 1485.734009)
(718780 4727115 1446.618042)
(718620 4727115 1549.637939)
(718780 4728075 1408.084961)
(718780 4739755 1302.780029)
(718780 4739915 1295.769043)
(718780 4740235 1413.519043)
(718780 4726475 1097.592041)
(718940 4726475 1058.767944)
(718780 4726635 1116.302979)
(718940 4726635 1105.404053)
(718780 4726795 1274.182007)
(718780 4728235 1377.859009)
(718940 4728235 1364.509033)
(718940 4740235 1431.963989)
(718940 4726315 1111.354004)
(719100 4726315 1066.560059)
(719100 4726475 1037.160034)
(719100 4726635 1040.223999)
(719100 4728235 1258.982056)
(718940 4728395 1321.504028)
(719100 4728395 1216.112061)
(719100 4739915 1354.668945)
(719100 4740075 1384.452026)
(719260 4726635 996.9140015)
(719260 4726795 1009.08197)
(719260 4728075 1160.297974)
(719260 4728235 1132.360962)
(719260 4740075 1469.468018)
(719100 4740235 1434.985962)
(719420 4724555 926.8709717)
(719420 4724715 909.1300049)
(719260 4724715 972.0469971)
(719420 4726475 951.0050049)
(719420 4726635 981.59198)
(719420 4726795 970.1259766)
(719420 4726955 969.3889771)
(719420 4727115 989.4500122)
(719420 4727755 1030.944946)
(719420 4728075 1026.177979)
(719420 4723915 881.6129761)
(719420 4724075 883.4160156)
(719580 4724075 875.2130127)
(719580 4724235 912.0289917)
(719580 4724395 884.4110107)
(719420 4724395 901.2020264)
(719420 4724875 926.3530273)
(719580 4724875 920.815979)
(719420 4725035 1006.346008)
(719580 4725035 901.5100098)
(719580 4726155 1023.478027)
(719420 4726315 973.6749878)
(719580 4726955 1051.922974)
(719580 4727115 996.440979)
(719580 4727595 977.0560303)
(719740 4723915 877.7329712)
(719740 4724075 877.9899902)
(719740 4724235 887.9329834)
(719740 4724555 905.2979736)
(719580 4725195 958.6829834)
(719740 4725195 908.1090088)
(719740 4725355 939.0269775)
(719580 4725355 1026.149048)
(719740 4725835 915.1469727)
(719740 4725995 945.3309937)
(719580 4725995 1017.85498)
(719740 4726155 929.2960205)
(719900 4724075 897.9069824)
(719900 4724235 893.1779785)
(719900 4724395 933.0549927)
(719900 4724555 934.1849976)
(719900 4724875 952.40802)
(719900 4725035 923.9349976)
(719900 4725195 927.5280151)
(719900 4725355 941.1129761)
(719740 4725515 962.3640137)
(719900 4725835 973.9790039)
(720060 4724075 997.6870117)
(720060 4724235 994.4470215)
(720060 4724395 955.5750122)
(720060 4724715 959.6539917)
(720060 4725035 981.1890259)
(720060 4736235 1426.227051)
(720060 4736395 1363.245972)
(719900 4736395 1314.680054)
(720220 4736075 1387.137939)
(720220 4736235 1382.130005)
(720220 4736395 1282.737061)
(720220 4736555 1284.387939)
(720060 4736555 1258.465942)
(720380 4736075 1295.008057)
(720380 4736235 1311.417969)
(720380 4736395 1347.23999)
(720380 4729355 1065.089966)
(720540 4729355 1099.529053)
(720380 4729515 1065.089966)
(720380 4729835 1232.343018)
(720540 4736235 1411.552979)
(720540 4736395 1443.089966)
(720700 4729835 1265.493042)
(720700 4736235 1533.659058)
(720700 4736395 1626.147949)
(720540 4736555 1548.267944)
(720700 4727435 1770.150024)
(720860 4727435 1787.69397)
(720860 4727595 1698.625977)
(720860 4727755 1585.536011)
(720700 4728075 1353.274048)
(720860 4729515 1219.217041)
(720860 4729675 1242.416016)
(720700 4736075 1415.120972)
(720860 4736075 1592.503052)
(720860 4736235 1629.607056)
(720860 4736395 1750.840942)
(720860 4736555 1722.10498)
(720860 4723915 1384.161987)
(721020 4723915 1411.635986)
(720860 4724075 1384.723999)
(721020 4724075 1471.135986)
(721020 4727595 1935.006958)
(721020 4728235 1397.675049)
(720860 4728395 1325.250977)
(721020 4729675 1309.213989)
(720860 4729835 1247.553955)
(721020 4729835 1299.06897)
(721020 4729995 1325.269043)
(721020 4730155 1323.491943)
(720860 4730155 1287.118042)
(720860 4730315 1330.723999)
(721020 4735915 1601.029053)
(721020 4736075 1731.956055)
(721020 4736235 1731.954956)
(721020 4723755 1333.814941)
(721180 4727595 1884.300049)
(721180 4728075 1507.206055)
(721180 4728235 1456.724976)
(721180 4728395 1400.206055)
(721020 4729515 1298.28894)
(721180 4729515 1372.072021)
(721180 4729675 1378.157959)
(721180 4730155 1359.050049)
(721020 4730315 1338.343018)
(721180 4736075 1774.427002)
(721180 4736235 1802.43396)
(721020 4736395 1781.647949)
(721340 4723435 1218.401001)
(721340 4723595 1282.579956)
(721180 4723595 1237.896973)
(721340 4723755 1340.509033)
(721340 4727595 1900.577026)
(721340 4727755 1906.895996)
(721340 4728395 1457.94104)
(721180 4728555 1379.473022)
(721340 4729355 1428.149048)
(721340 4729515 1400.620972)
(721340 4729675 1405.274048)
(721340 4730155 1391.857056)
(721180 4730475 1340.892944)
(721340 4730475 1371.277954)
(721180 4730635 1320.953003)
(721340 4730635 1351.13501)
(721340 4730795 1315.550049)
(721180 4730795 1290.863037)
(721500 4723595 1317.161987)
(721500 4723755 1415.572998)
(721500 4724075 1529.939941)
(721500 4727595 1934.036011)
(721500 4727755 2008.061035)
(721500 4727915 1990.756958)
(721500 4728075 1750.852051)
(721500 4728395 1577.387939)
(721340 4728555 1461.649048)
(721340 4729195 1440.959961)
(721500 4729195 1512.600952)
(721500 4729355 1466.589966)
(721500 4729515 1435.916992)
(721500 4730155 1433.963989)
(721340 4730315 1397.729004)
(721500 4730315 1427.740967)
(721500 4730475 1409.291016)
(721500 4730635 1384.23999)
(721500 4730795 1348.803955)
(721340 4730955 1301.389038)
(721500 4730955 1352.810059)
(721660 4723595 1323.796021)
(721660 4723915 1489.47998)
(721500 4726955 1541.10498)
(721660 4726955 1495.78894)
(721500 4727115 1574.86499)
(721660 4727115 1576.333008)
(721500 4728555 1532.255981)
(721660 4728555 1602.89502)
(721660 4729035 1629.26001)
(721660 4730155 1472.051025)
(721660 4730315 1490.125)
(721660 4730475 1442.905029)
(721660 4730635 1407.06604)
(721660 4730795 1373.626953)
(721660 4731595 1454.467041)
(721500 4731755 1331.078003)
(721820 4723595 1321.491943)
(721820 4723755 1384.256958)
(721820 4723915 1468.71106)
(721660 4724075 1570.777954)
(721820 4726955 1448.70105)
(721820 4727115 1579.255005)
(721660 4727275 1639.269043)
(721820 4727275 1631.823975)
(721820 4728075 1939.593994)
(721820 4728235 1801.197021)
(721820 4729035 1732.829956)
(721820 4729195 1699.144043)
(721820 4730315 1535.348022)
(721820 4730635 1445.57605)
(721820 4730795 1434.404053)
(721820 4731275 1533.254028)
(721820 4731435 1601.162964)
(721660 4731435 1484.588989)
(721820 4731595 1563.302979)
(721820 4731755 1530.113037)
(721980 4723755 1434.422974)
(721980 4726955 1424.647949)
(721980 4727115 1470.786987)
(721980 4728235 2021.807983)
(721980 4729035 1842.496948)
(721980 4729195 1805.864014)
(721980 4729355 1776.323975)
(721980 4729515 1715.572998)
(721980 4729675 1604.420044)
(721980 4729835 1572.786011)
(721980 4729995 1575.775024)
(721980 4730155 1560.474976)
(721980 4730475 1561.446045)
(721980 4730635 1503.416016)
(721820 4731115 1410.838989)
(721980 4731115 1488.160034)
(721980 4731275 1565.230957)
(721980 4731435 1669.119995)
(721980 4731755 1539.696045)
(721820 4731915 1450.744995)
(722140 4723915 1566.402954)
(722140 4724075 1614.730957)
(722140 4726955 1365.319946)
(722140 4727115 1444.723022)
(722140 4727275 1533.978027)
(721980 4728075 2132.818115)
(722140 4728075 2128.510986)
(722140 4728235 2104.798096)
(722140 4729195 1918.926025)
(722140 4729515 1827.869995)
(722140 4729835 1662.595947)
(722140 4729995 1620.506958)
(722140 4730155 1635.302002)
(722140 4730315 1582.880981)
(722140 4730475 1619.515015)
(721980 4730795 1516.219971)
(722140 4730795 1609.930054)
(721980 4730955 1467.526978)
(722140 4730955 1607.753052)
(722140 4731115 1596.628052)
(722140 4731595 1619.666992)
(722140 4731755 1566.487061)
(722300 4727115 1550.723022)
(722300 4727275 1582.737061)
(722300 4728235 2180.50708)
(722300 4729035 2019.564941)
(722300 4729195 2006.922974)
(722300 4729355 1979.896973)
(722300 4730315 1647.204956)
(722300 4730475 1656.344971)
(722300 4730795 1634.156006)
(722300 4730955 1706.264038)
(722300 4731115 1665.81604)
(722300 4731275 1756.578003)
(722300 4731435 1738.156006)
(722300 4731755 1587.619995)
(722300 4731915 1509.631958)
(702460 4725835 1125.947998)
(702460 4725995 1150.922974)
(702460 4726155 1168.676025)
(702460 4726315 1165.901978)
(702460 4726795 1155.374023)
(702460 4726955 1171.89502)
(702460 4727115 1160.046997)
(702620 4727275 1162.599976)
(702460 4729195 1005.765991)
(702460 4729355 1013.205994)
(702460 4729515 998.6610107)
(702460 4729675 992.4060059)
(702460 4729835 1002.153992)
(702460 4729995 1003.349976)
(702460 4733035 1200.166016)
(702460 4733195 1205.11499)
(702460 4733355 1188.921997)
(702460 4733515 1190.746948)
(702460 4733675 1179.381958)
(702460 4733835 1169.766968)
(702460 4733995 1206.592041)
(702460 4734155 1247.264038)
(702460 4734315 1278.197998)
(702460 4734475 1328.583008)
(702460 4734635 1343.723999)
(702460 4734795 1375.255005)
(702460 4734955 1499.047974)
(702460 4735115 1552.411011)
(702460 4735275 1527.14502)
(702460 4735595 1584.192017)
(702460 4735755 1665.030029)
(702460 4736075 1667.77002)
(702620 4736235 1481.317993)
(702780 4725515 1017.083984)
(702620 4731115 1009.034973)
(702620 4731275 1006.367004)
(702620 4731435 1011.895996)
(702620 4731595 1016.242981)
(702620 4731755 1034.073975)
(702620 4731915 1044.488037)
(702620 4732075 1047.944946)
(702620 4732235 1042.688965)
(702620 4732395 1043.444946)
(702620 4732555 1051.284058)
(702620 4732715 1055.921021)
(702940 4728875 1110.258057)
(702940 4733035 1126.670044)
(702940 4733195 1142.621948)
(702940 4733355 1136.621948)
(702940 4733515 1156.006958)
(702940 4733675 1159.279053)
(702940 4733835 1196.255005)
(702940 4733995 1207.271973)
(703100 4727275 1231.313965)
(703100 4729195 1136.125977)
(703100 4729355 1147.208984)
(703100 4729515 1161.83606)
(703100 4731275 1377.901001)
(703100 4732235 1302.755005)
(703100 4734475 1337.887939)
(703100 4735115 1172.569946)
(703100 4735275 1176.20105)
(703260 4726155 1093.598999)
(703260 4727275 1260.025024)
(703260 4731435 1559.812988)
(703420 4727275 1302.862061)
(703420 4731595 1640.281982)
(703420 4731755 1654.949951)
(703580 4727275 1355.620972)
(703580 4731915 1675.373047)
(703580 4732075 1666.842041)
(703580 4733515 1277.901978)
(703740 4726635 1337.572021)
(703740 4727275 1444.973022)
(703740 4733515 1298.964966)
(703740 4733835 1468.312012)
(703900 4727115 1523.223022)
(703900 4727275 1516.28894)
(703900 4733835 1443.411011)
(704060 4733675 1392.550049)
(704060 4733835 1463.426025)
(704060 4738315 1412.186035)
(704220 4733675 1414.213989)
(704220 4738475 1417.344971)
(704060 4738635 1333.267944)
(704220 4738635 1413.756958)
(704060 4738795 1332.600952)
(704380 4738795 1434.275024)
(704220 4739115 1382.295044)
(704380 4721355 1140.973999)
(704380 4721515 1098.131958)
(704540 4721675 1016.057007)
(704540 4733675 1446.870972)
(704380 4733835 1523.333008)
(704540 4733835 1548.495972)
(704540 4739115 1552.779053)
(704380 4739275 1402.787964)
(704540 4739275 1511.036011)
(704545 4721195 1161.301025)
(704700 4739435 1573.769043)
(704705 4721195 1150.699951)
(705500 4722795 1152.754028)
(705820 4721995 1015.862)
(705660 4723115 1235.973999)
(706620 4722795 1293.526978)
(706780 4723115 1345.399048)
(707100 4723435 1371.896973)
(707260 4723435 1296.44397)
(707420 4723435 1225.911987)
(707420 4724075 1158.626953)
(707420 4723755 1247.025024)
(707580 4724075 1127.897949)
(707740 4723915 1107.94104)
(707900 4722155 1006.763977)
(708060 4722155 1015.370972)
(708060 4722475 1019.244019)
(708060 4722635 1037.485962)
(708060 4723115 1054.196045)
(709180 4728075 1863.303955)
(709180 4727915 1770.699951)
(709340 4727755 1673.637939)
(709500 4727755 1679.296021)
(709980 4727755 1484.282959)
(709980 4727915 1494.776978)
(709980 4728075 1505.668945)
(710145 4721195 1486.368042)
(711100 4726475 1412.901978)
(711580 4726795 1587.647949)
(712060 4726155 1818.072998)
(712220 4726635 1613.723022)
(712220 4727275 1761.625977)
(712380 4726315 1842.853027)
(712540 4726795 1717.217041)
(712540 4727275 1700.703003)
(714145 4721195 1106.890991)
(714305 4721195 1175.116943)
(714465 4721195 1195.348999)
(714625 4721195 1224.71106)
(714620 4721515 1167.792969)
(714620 4721675 1211.482056)
(714945 4721195 1260.640991)
(715100 4722315 1472.616943)
(715100 4722475 1503.595947)
(715100 4722635 1557.64502)
(715260 4722155 1476.957031)
(715265 4721195 1441.619995)
(715420 4722155 1505.56897)
(715425 4721195 1478.77002)
(715580 4721995 1474.276001)
(715740 4721515 1524.338013)
(716060 4726955 1560.067993)
(716860 4726635 1577.014038)
(717020 4726635 1530.030029)
(717340 4726795 1419.151978)
(718300 4727915 1642.487061)
(718300 4728075 1540.995972)
(718780 4726955 1366.355957)
(718940 4726795 1193.555054)
(718940 4739915 1335.896973)
(719260 4726475 1028.267944)
(719420 4727915 1021.02301)
(719580 4723915 872.9400024)
(719580 4724715 893.3469849)
(719580 4726315 939.40802)
(719580 4727275 971.7709961)
(719580 4727435 972.7839966)
(719740 4724875 928.0300293)
(720060 4724875 974.7440186)
(720540 4729515 1106.188965)
(720380 4729675 1109.258057)
(720540 4729835 1240.21106)
(720700 4729515 1162.998047)
(720700 4736555 1642.095947)
(720700 4727595 1649.782959)
(720700 4727755 1526.416016)
(720700 4727915 1420.329956)
(720860 4728075 1390.993042)
(721020 4728075 1443.225952)
(721020 4728395 1364.531982)
(721180 4723755 1323.083008)
(721180 4724075 1465.384033)
(721340 4724075 1505.093994)
(721660 4728075 1826.348999)
(721660 4731755 1480.776001)
(721820 4724075 1566.402954)
(721660 4728715 1569.832031)
(721660 4728875 1586.68396)
(721980 4723915 1479.786011)
(721980 4724075 1563.687012)
(721980 4727275 1556.595947)
(721980 4731595 1600.680054)
(721980 4731915 1484.20105)
(722140 4729355 1849.482056)
(722140 4731275 1617.281006)
(722140 4731435 1702.686035)
(722140 4731915 1505.598022)
(722300 4728395 2133.956055)
(722300 4728555 2125.095947)
(722300 4728715 2102.756104)
(722300 4728875 2105.059082)
(722300 4730635 1661.459961)
(702620 4735755 1599.456055)
(703260 4726955 1371.998047)
(703100 4726955 1353.041016)
(703420 4726955 1405.621948)
(703580 4727115 1426.619995)
(705820 4722795 1108.869019)
(707580 4722475 1126.883057)
(707420 4722635 1167.391968)
(707580 4723115 1241.980957)
(707420 4723275 1251.458984)
(707740 4722955 1217.140991)
(714940 4721355 1284.917969)
(714940 4721515 1265.402954)
(715100 4721355 1363.109009)
(718460 4727755 1702.636963)
(718620 4727755 1593.930054)
(718780 4727275 1540.868042)
(718940 4727275 1425.53894)
(721340 4728075 1620.837036)
(702620 4733355 1083.564941)
(702620 4733515 1086.102051)
(702620 4733675 1083.227051)
(702620 4733835 1085.175049)
(702620 4733995 1125.880981)
(702620 4735275 1390.727051)
(702780 4731755 1060.916992)
(702780 4731915 1040.290039)
(702780 4732075 1055.468018)
(702780 4732235 1039.005005)
(702780 4732395 1048.417969)
(702780 4733035 1073.35498)
(702780 4733995 1134.652954)
(702780 4734155 1128.949951)
(702780 4734315 1137.233032)
(703100 4731595 1341.817017)
(703740 4733675 1355.880981)
(705660 4722315 997.4470215)
(705660 4722475 1003.60199)
(705820 4723115 1140.42395)
(706780 4722795 1206.016968)
(707580 4722795 1106.186035)
(707420 4722955 1154.753052)
(707740 4722475 1043.348022)
(707580 4722635 1101.017944)
(707740 4722635 1093.098999)
(711580 4726475 1533.713013)
(711740 4726635 1497.069946)
(711900 4726635 1519.765991)
(712540 4727115 1625.063965)
(714460 4721355 1152.310059)
(714780 4721515 1185.436035)
(714940 4721675 1199.844971)
(715260 4721675 1282.512939)
(715100 4721675 1246.45105)
(715420 4721675 1325.536987)
(719420 4727275 1013.536011)
(721020 4727755 1664.703003)
(721180 4727755 1742.637939)
(721340 4727915 1781.853027)
(721820 4729675 1543.307007)
(721980 4730315 1552.894043)
(721820 4730475 1474.29895)
)


// edges:

1079
(
(0 913)
(67 42)
(70 0)
(914 915)
(916 914)
(110 916)
(118 917)
(128 129)
(162 152)
(184 918)
(919 920)
(921 922)
(923 921)
(283 285)
(311 308)
(327 318)
(333 328)
(337 336)
(366 924)
(925 362)
(371 926)
(927 413)
(928 927)
(929 424)
(930 929)
(482 483)
(513 504)
(517 518)
(526 521)
(554 541)
(584 585)
(931 570)
(640 642)
(17 18)
(932 933)
(934 935)
(935 936)
(937 22)
(938 939)
(939 940)
(940 941)
(941 942)
(39 943)
(944 945)
(945 946)
(946 40)
(41 42)
(56 33)
(68 42)
(1 947)
(99 1)
(105 106)
(125 948)
(150 152)
(949 950)
(951 180)
(187 188)
(952 215)
(953 954)
(238 231)
(955 956)
(957 953)
(290 286)
(297 294)
(958 297)
(959 301)
(960 959)
(311 960)
(312 308)
(317 318)
(2 318)
(327 2)
(333 2)
(335 961)
(962 341)
(963 362)
(964 362)
(370 371)
(965 966)
(967 965)
(388 385)
(459 453)
(471 472)
(472 968)
(482 484)
(495 496)
(498 499)
(502 503)
(526 522)
(540 541)
(568 969)
(584 970)
(602 971)
(663 972)
(973 974)
(678 679)
(681 658)
(705 693)
(4 3)
(712 4)
(713 712)
(714 713)
(715 714)
(5 6)
(6 7)
(7 715)
(9 8)
(716 9)
(717 716)
(718 717)
(10 718)
(719 10)
(11 12)
(13 11)
(12 14)
(14 13)
(15 14)
(720 15)
(721 720)
(722 721)
(723 722)
(724 723)