/*--------------------------------*- C++ -*----------------------------------*\
  =========                 |
  \\      /  F ield         | OpenFOAM: The Open Source CFD Toolbox
   \\    /   O peration     | Website:  https://openfoam.org
    \\  /    A nd           | Version:  6
     \\/     M anipulation  |
\*---------------------------------------------------------------------------*/
FoamFile
{
    version     2.0;
    format      ascii;
    class       featureEdgeMesh;
    location    "constant/triSurface";
    object      Laminas_de_agua.eMesh;
}
// * * * * * * * * * * * * * * * * * * * * * * * * * * * * * * * * * * * * * //


// points:

175
(
(707900 4732875 2108.831055)
(707740 4733035 2100.611084)
(707740 4733195 2103.297119)
(707900 4733195 2136.845947)
(708060 4732875 2100.678955)
(708060 4733035 2100.679932)
(708060 4732715 2148.552002)
(708380 4733035 2100.690918)
(708540 4732715 2144.424072)
(708540 4733035 2100.708984)
(708380 4733195 2138.374023)
(708540 4733195 2105.301025)
(708700 4733035 2136.676025)
(715420 4735275 1617.020996)
(715580 4735275 1621.432007)
(715420 4735435 1655.657959)
(715580 4735435 1621.340942)
(715900 4735435 1608.302002)
(716060 4735275 1624.795044)
(716060 4735435 1603.970947)
(715900 4735595 1626.670044)
(716060 4735595 1612.666016)
(716220 4735275 1650.526001)
(716220 4735435 1607.85498)
(716220 4735755 1609.602051)
(716060 4735915 1681.656982)
(716220 4735915 1651.074951)
(716540 4735435 1644.584961)
(716540 4735755 1610.828003)
(716540 4735915 1610.28894)
(716700 4735755 1640.769043)
(716700 4735915 1601.75)
(716540 4736075 1735.020996)
(718300 4737995 1257.041992)
(718300 4738155 1260.968994)
(718140 4738155 1266.141968)
(718300 4737835 1282.136963)
(718460 4737835 1257.542969)
(718300 4738315 1262.359009)
(718460 4738315 1254.73999)
(718620 4737675 1267.973999)
(718620 4738475 1262.93103)
(718460 4738635 1300.728027)
(718780 4738155 1254.44397)
(718780 4738315 1257.483032)
(718780 4738475 1292.149048)
(718940 4738155 1276.953979)
(718940 4738315 1279.582031)
(719100 4737675 1254.400024)
(719100 4737835 1254.400024)
(719260 4737515 1254.400024)
(719260 4737675 1254.401001)
(719260 4737835 1303.274048)
(719420 4737035 1254.422974)
(719420 4737195 1254.42395)
(719260 4737195 1295.812012)
(719260 4737355 1285.535034)
(719420 4737675 1275.619995)
(719420 4736875 1294.025024)
(719580 4736875 1254.446045)
(719580 4737195 1258.218018)
(719580 4737515 1269.859009)
(719580 4729035 1083.238037)
(719740 4729035 1065.131958)
(719580 4729675 1087.889038)
(719740 4729675 1065.323975)
(719740 4730795 1065.140991)
(719580 4730795 1088.639038)
(719740 4730955 1065.141968)
(719580 4730955 1086.855957)
(719580 4731115 1077.062012)
(719740 4731275 1065.144043)
(719580 4731435 1088.10498)
(719740 4736555 1240.349976)
(719580 4736715 1277.057007)
(719740 4737035 1254.400024)
(719900 4728875 1064.628052)
(719740 4729835 1137.019043)
(719900 4729835 1079.177979)
(719900 4730475 1069.715942)
(719740 4731435 1081.262939)
(719900 4731435 1065.089966)
(719900 4736875 1254.314941)
(719900 4737035 1279.5)
(720060 4728875 1105.707031)
(720060 4729195 1065.089966)
(720060 4730155 1065.089966)
(720060 4730315 1065.089966)
(719900 4731595 1085.652954)
(720060 4731595 1065.089966)
(720060 4736555 1258.465942)
(720060 4736715 1272.02002)
(720220 4729835 1065.089966)
(720220 4729995 1093.307007)
(720220 4730155 1174.488037)
(720220 4730315 1138.723022)
(720220 4730635 1065.089966)
(720060 4731915 1121.760986)
(720220 4731915 1065.494019)
(720380 4729195 1091.167969)
(720380 4729675 1109.258057)
(720380 4730635 1102.202026)
(720380 4730795 1065.089966)
(720380 4730955 1065.089966)
(720380 4731115 1065.089966)
(720380 4731275 1065.089966)
(720220 4732555 1101.521973)
(720540 4730795 1113.80603)
(720540 4730955 1084.126953)
(720540 4731275 1076.500977)
(720540 4731435 1065.089966)
(720540 4732555 1065.089966)
(720540 4732715 1065.089966)
(720380 4732715 1082.503052)
(720700 4731435 1086.099976)
(720700 4731755 1065.089966)
(720700 4731915 1065.089966)
(720700 4732075 1065.089966)
(720540 4732875 1085.168945)
(720700 4732875 1065.089966)
(720860 4731755 1106.125)
(720860 4731915 1104.724976)
(720860 4732075 1119.605957)
(720860 4732715 1066.006958)
(720860 4732875 1066.750977)
(720860 4733035 1065.442993)
(720860 4733195 1067.264038)
(720860 4733355 1071.287964)
(720700 4733515 1065.089966)
(721020 4732715 1071.620972)
(721020 4732875 1071.704956)
(721020 4733035 1070.675049)
(708220 4732715 2100.668945)
(708220 4733035 2105.990967)
(708380 4732715 2109.447998)
(708540 4732875 2127.541016)
(715740 4735275 1630.53894)
(715740 4735435 1618.672974)
(715900 4735275 1618.954956)
(716060 4735755 1644.874023)
(716380 4735435 1630.244995)
(716380 4735915 1627.588013)
(716540 4735595 1621.93103)
(718460 4738475 1257.327026)
(718780 4737675 1257.692993)
(718940 4737675 1259.97998)
(718940 4737995 1259.141968)
(719580 4737355 1254.400024)
(719580 4729195 1080.176025)
(719580 4729355 1076.857056)
(719580 4729515 1082.281982)
(719740 4730635 1065.140015)
(719580 4731275 1075.767944)
(719900 4736555 1272.588013)
(720060 4729035 1071.932007)
(719900 4729995 1088.708984)
(719900 4730155 1079.703979)
(719900 4730315 1065.089966)
(720220 4729195 1065.089966)
(720220 4730475 1066.519043)
(720060 4731755 1068.92395)
(720380 4729355 1065.089966)
(720380 4729515 1065.089966)
(720220 4732075 1083.751953)
(720220 4732235 1105.76001)
(720220 4732395 1082.290039)
(720380 4732555 1065.089966)
(720700 4731595 1065.089966)
(720860 4732235 1065.114014)
(720860 4732395 1065.11499)
(720860 4732555 1065.682007)
(720700 4733035 1065.089966)
(720700 4733195 1065.089966)
(720700 4733355 1065.089966)
(720060 4730475 1065.089966)
)


// edges:

178
(
(95 174)
(31 29)
(86 87)
(1 0)
(2 1)
(3 2)
(0 4)
(5 3)
(6 132)
(4 6)
(133 5)
(132 134)
(7 133)
(134 8)
(8 135)
(135 9)
(10 7)
(11 10)
(9 12)
(12 11)
(13 14)
(14 15)
(15 13)
(14 136)
(16 14)
(137 16)
(136 138)
(17 137)
(138 18)
(18 19)
(20 17)
(21 20)
(22 23)
(19 22)
(139 21)
(24 25)
(25 139)
(23 140)
(26 24)
(141 26)
(140 27)
(27 142)
(142 28)
(29 141)
(28 30)
(30 31)
(31 32)
(32 29)
(34 35)
(35 33)
(36 37)
(33 36)
(38 34)
(39 38)
(37 40)
(143 39)
(41 42)
(42 143)
(40 144)
(45 41)
(144 145)
(146 43)
(43 46)
(46 44)
(44 47)
(47 45)
(145 48)
(49 146)
(48 50)
(51 52)
(52 49)
(54 55)
(55 53)
(56 54)
(50 56)
(57 51)
(58 59)
(53 58)
(60 147)
(147 61)
(61 57)
(62 63)
(148 62)
(149 148)
(150 149)
(64 150)
(65 64)
(66 67)
(67 151)
(68 69)
(69 66)
(70 68)
(152 70)
(71 72)
(72 152)
(74 73)
(59 74)
(75 60)
(63 76)
(77 65)
(78 77)
(151 79)
(80 71)
(81 80)
(73 153)
(82 83)
(83 75)
(76 84)
(84 154)
(154 85)
(155 78)
(156 155)
(157 156)
(79 157)
(88 81)
(89 88)
(153 90)
(90 91)
(91 82)
(85 158)
(92 93)
(93 86)
(86 94)
(94 87)
(87 95)
(95 159)
(159 96)
(160 89)
(97 160)
(98 97)
(158 99)
(99 161)
(161 162)
(162 100)
(100 92)
(96 101)
(101 102)
(104 105)
(163 98)
(164 163)
(165 164)
(106 165)
(166 106)
(102 107)
(107 103)
(103 108)
(108 104)
(105 109)
(109 110)
(111 166)
(112 113)
(113 111)
(110 114)
(114 167)
(167 115)
(118 112)
(119 118)
(115 120)
(120 116)
(116 121)
(121 117)
(117 122)
(122 168)
(168 169)
(169 170)
(170 123)
(171 119)
(124 125)
(172 171)
(173 172)
(126 127)
(127 128)
(128 173)
(123 129)
(129 130)
(130 124)
(125 131)
(131 126)
)

// * * * * * * * * * * * * * * * * * * * * * * * * * * * * * * * * * * * * * //


// ************************************************************************* //
