/*--------------------------------*- C++ -*----------------------------------*\
  =========                 |
  \\      /  F ield         | OpenFOAM: The Open Source CFD Toolbox
   \\    /   O peration     | Website:  https://openfoam.org
    \\  /    A nd           | Version:  6
     \\/     M anipulation  |
\*---------------------------------------------------------------------------*/
FoamFile
{
    version     2.0;
    format      ascii;
    class       featureEdgeMesh;
    location    "constant/triSurface";
    object      Matorrales.eMesh;
}
// * * * * * * * * * * * * * * * * * * * * * * * * * * * * * * * * * * * * * //


// points:

1439
(
(710140 4739915 2221.504883)
(710620 4740075 2144.509033)
(721660 4727915 2098.736084)
(717500 4736235 1567.706055)
(717820 4736075 1535.290039)
(703100 4731115 1349.284058)
(702940 4731115 1233.256958)
(703260 4730795 1332.837036)
(703260 4730955 1390.54895)
(703260 4731115 1425.599976)
(703100 4731435 1386.868042)
(703420 4730955 1464.161011)
(703420 4731115 1519.095947)
(703420 4731275 1572.147949)
(703420 4731435 1637.858032)
(703580 4730955 1533.597046)
(703580 4731115 1599.124023)
(703580 4731275 1653.652954)
(703580 4731755 1732.911011)
(703420 4731915 1591.994995)
(703580 4737835 1239.449951)
(703580 4737995 1261.657959)
(703420 4737995 1306.072998)
(703420 4738155 1338.848022)
(703580 4738155 1285.973999)
(703580 4738315 1355.302979)
(703420 4738315 1385.327026)
(703580 4738475 1466.421021)
(703420 4738475 1469.735962)
(703740 4737355 1238.526001)
(703740 4737515 1266.251953)
(703580 4737515 1243.944946)
(703580 4737675 1257.078979)
(703740 4737835 1305.590942)
(703740 4737995 1295.495972)
(703740 4738155 1288.848022)
(703740 4738315 1288.754028)
(703740 4737195 1247.167969)
(703900 4737195 1313.129028)
(703900 4737515 1324.5)
(703740 4737675 1317.246948)
(703900 4737675 1331.859009)
(703900 4737835 1340.932983)
(703900 4737995 1360.858032)
(703900 4738155 1388.10498)
(703900 4738315 1320.083008)
(703740 4738475 1348.135986)
(703900 4738475 1297.238037)
(703740 4738635 1391.858032)
(703900 4736875 1384.22998)
(704060 4736875 1415.38501)
(703900 4737035 1405.206055)
(703900 4737355 1311.750977)
(704060 4737355 1480.421021)
(704060 4737515 1411.560059)
(704060 4737675 1342.822021)
(704060 4737835 1319.661987)
(704060 4737995 1383.009033)
(704060 4738155 1414.253052)
(704060 4738475 1343.884033)
(703900 4738635 1295.084961)
(703900 4738795 1316.55896)
(704060 4738795 1332.600952)
(704220 4737035 1525.494995)
(704060 4737195 1417.573975)
(704220 4737355 1558.327026)
(704220 4737515 1422.090942)
(704220 4737675 1327.900024)
(704220 4737995 1414.550049)
(704220 4738155 1473.017944)
(704380 4737515 1414.348999)
(704380 4737675 1324.250977)
(704380 4737835 1389.281006)
(704380 4737995 1455.256958)
(704380 4738155 1550.333984)
(704220 4738315 1460.254028)
(704540 4736875 1644.406982)
(704540 4737035 1715.734009)
(704380 4737035 1591.227051)
(704540 4737675 1339.707031)
(704540 4737835 1408.848999)
(704540 4737995 1523.203003)
(704380 4738315 1543.964966)
(704700 4737035 1818.435059)
(704540 4737195 1769.438965)
(704700 4737515 1424.990967)
(704700 4737835 1443.465942)
(704700 4737995 1568.18103)
(704700 4738155 1657.27002)
(704860 4737515 1423.628052)
(704700 4737675 1354.213013)
(704860 4737835 1535.274048)
(704860 4737995 1607.084961)
(704860 4738155 1720.447998)
(704860 4738315 1803.855957)
(705020 4724075 1138.051025)
(705020 4724235 1206.353027)
(704860 4724235 1138.230957)
(705020 4737995 1694.008057)
(705020 4723915 1058.534058)
(705180 4723915 1097.145996)
(705180 4724075 1147.240967)
(705020 4724555 1319.780029)
(705180 4724555 1347.682983)
(705180 4723755 1032.407959)
(705340 4724555 1297.944946)
(705180 4724715 1306.67395)
(705340 4724715 1339.324951)
(705500 4724715 1277.654053)
(705340 4724875 1259.579956)
(705660 4723755 1070.280029)
(705660 4723915 1059.63501)
(705660 4724875 1338.68103)
(705820 4724075 1083.907959)
(705820 4724395 1134.812012)
(705660 4725195 1337.464966)
(705820 4725195 1420.062012)
(705820 4725355 1395.266968)
(705820 4725515 1391.922974)
(705660 4725515 1308.435059)
(705980 4723915 1167.630005)
(705980 4724075 1162.187012)
(705980 4724395 1146.534058)
(705820 4725675 1390.557983)
(705980 4725675 1489.296021)
(706140 4723755 1257.244995)
(706140 4724075 1234.584961)
(705980 4724235 1149.046997)
(706140 4724235 1202.436035)
(706140 4724395 1159.327026)
(706140 4724875 1319.084961)
(706140 4725195 1409.037964)
(705980 4725835 1445.75)
(706145 4721195 972.2109985)
(706300 4721355 1025.027954)
(706140 4721515 974.9420166)
(706300 4724075 1317.535034)
(706300 4724395 1214.267944)
(706300 4724715 1340.10498)
(706300 4725035 1395.005005)
(706300 4725195 1434.844971)
(706300 4725515 1557.982056)
(706300 4725835 1624.593018)
(706305 4721195 1021.156006)
(706460 4721355 1059.81604)
(706460 4723755 1335.314941)
(706460 4723915 1379.22998)
(706460 4724235 1306.66394)
(706460 4724555 1319.822998)
(706460 4724715 1378.624023)
(706460 4725195 1474.745972)
(706460 4725355 1531.607056)
(706620 4723755 1369.123047)
(706620 4723915 1423.984985)
(706460 4724075 1362.383057)
(706620 4724395 1365.334961)
(706620 4724555 1382.665039)
(706620 4724715 1433.425049)
(706460 4724875 1422.444946)
(706620 4725355 1572.83606)
(706460 4725515 1576.215942)
(706620 4726635 1907.073975)
(706620 4726795 1942.394043)
(706460 4726795 1862.875)
(706460 4726955 1875.234009)
(706780 4723755 1425.041992)
(706780 4723915 1394.656982)
(706780 4724395 1398.927002)
(706780 4724555 1375.162964)
(706780 4724715 1364.848999)
(706620 4724875 1484.079956)
(706620 4726475 1869.630005)
(706780 4726475 1877.432983)
(706780 4726795 1999.859985)
(706620 4726955 1976.618042)
(706940 4726155 1697.745972)
(706940 4726315 1742.682983)
(706780 4726315 1805.422974)
(706780 4726955 2053.394043)
(706940 4726955 1979.015991)
(706940 4727115 2028.157959)
(706780 4727115 2064.094971)
(706940 4727275 2108.687988)
(706780 4727275 2058.024902)
(707100 4726475 1707.020996)
(707100 4726635 1808.666016)
(707100 4726955 1884.604004)
(707100 4727115 1987.290039)
(707260 4726635 1736.633057)
(707260 4726795 1755.520996)
(707260 4726955 1853.604004)
(707260 4727115 1893.666992)
(707100 4727275 2014.786987)
(707420 4727115 1796.167969)
(707420 4727435 1993.96106)
(707740 4726795 1634.261963)
(707740 4727275 1800.713989)
(707740 4727435 1883.333984)
(707740 4727595 1931.595947)
(707580 4727595 1937.967041)
(707580 4727755 1976.015991)
(707740 4727755 2023.791992)
(707900 4727275 1877.713989)
(707900 4727595 1983.810059)
(707900 4727755 2063.649902)
(707900 4727115 1813.750977)
(708060 4727115 1853.546021)
(708060 4727275 1940.993042)
(708380 4725515 1602.994995)
(708380 4725675 1692.279053)
(708220 4725675 1706.85498)
(708380 4728395 1914.432007)
(708220 4728555 1931.045044)
(708220 4728715 2015.563965)
(708380 4728715 2028.185059)
(708540 4725355 1499.547974)
(708540 4725515 1602.089966)
(708540 4725675 1686.44104)
(708540 4728395 1882.983032)
(708540 4728555 1949.723999)
(708700 4725515 1591.011963)
(708700 4725995 1773.30603)
(708540 4726155 1885.293945)
(708700 4726155 1866.57605)
(708700 4728395 1886.932983)
(708700 4728555 1966.421021)
(708540 4728715 2050.456055)
(708860 4725835 1741.369995)
(708700 4726315 1940.772949)
(708700 4727595 1898.265015)
(708860 4727595 1805.95105)
(708700 4727755 1847.103027)
(708860 4727755 1791.248047)
(708860 4728075 1783.244019)
(708860 4728235 1847.222046)
(708700 4728235 1809.225952)
(708860 4728395 1906.314941)
(708860 4728555 1991.401978)
(709020 4725835 1735.68396)
(709020 4726155 1921.572021)
(709020 4726315 1993.024048)
(709020 4727435 1814.43103)
(709020 4727595 1771.222046)
(708860 4727915 1729.720947)
(709020 4727915 1753.552002)
(709020 4728075 1858.177979)
(709020 4728395 1939.313965)
(709020 4728555 1890.536011)
(709180 4725835 1829.637939)
(709180 4725995 1887.323975)
(709180 4727595 1712.374023)
(709180 4727755 1691.384033)
(709180 4728235 1951.541016)
(709020 4728715 1811.480957)
(709180 4728715 1738.026978)
(709020 4728875 1826.192017)
(709340 4727755 1673.637939)
(709340 4728075 1834.949951)
(709340 4728235 1846.026001)
(709340 4728395 1824.343994)
(709340 4728715 1726.68103)
(709340 4728875 1824.649048)
(709340 4729035 1967.562988)
(709180 4729035 1952.094971)
(709180 4729195 1993.973022)
(709340 4729195 2090.289062)
(709340 4740555 2162.103027)
(709180 4740715 2112.839111)
(709180 4741035 2135.736084)
(709500 4727915 1736.953979)
(709340 4727915 1760.810059)
(709500 4728075 1746.44104)
(709500 4728235 1766.56897)
(709500 4728395 1733.098999)
(709500 4728555 1700.83606)
(709500 4728715 1725.531006)
(709500 4728875 1839.291016)
(709500 4729035 1975.592041)
(709500 4729195 2013.832031)
(709500 4740235 2213.070068)
(709340 4740395 2146.381104)
(709660 4727595 1618.899048)
(709660 4727755 1663.224976)
(709660 4728395 1614.854004)
(709660 4728555 1644.786011)
(709660 4728875 1859.540039)
(709500 4729515 2198.905029)
(709660 4729515 2185.89209)
(709660 4739755 2342.150879)
(709660 4739915 2237.49707)
(709500 4739915 2265.865967)
(709500 4740075 2228.943115)
(709660 4740075 2215.552979)
(709820 4728555 1555.131958)
(709820 4728715 1616.515015)
(709820 4728875 1723.227051)
(709820 4729195 1938.692017)
(709820 4729355 2014.238037)
(709660 4739435 2331.312012)
(709820 4739595 2217.939941)
(709980 4728555 1518.857056)
(709980 4729035 1722.13501)
(709980 4739435 2144.12793)
(709980 4739595 2167.513916)
(709980 4728235 1491.68103)
(710140 4728235 1511.930054)
(710140 4728395 1520.005981)
(710140 4728715 1586.94397)
(710140 4728875 1616.482056)
(710140 4729035 1651.927979)
(710140 4729195 1670.130005)
(709980 4729515 1834.973999)
(710140 4729515 1724.692993)
(710140 4739435 2075.946045)
(710140 4740075 2155.687012)
(710300 4727915 1558.213989)
(710300 4728075 1576.704956)
(710140 4728075 1502.97998)
(710300 4728235 1590.718994)
(710300 4728395 1593.641968)
(710300 4728555 1601.603027)
(710300 4728715 1677.029053)
(710300 4729035 1740.92395)
(710300 4739435 2055.612061)
(710300 4739595 2058.083984)
(710300 4739755 2076.400879)
(710300 4739915 2164.571045)
(710300 4740075 2175.550049)
(710460 4727915 1589.102051)
(710460 4728075 1658.573975)
(710460 4728235 1659.897949)
(710460 4728715 1727.725952)
(710460 4729035 1844.156006)
(710460 4729195 1950.129028)
(710300 4739115 2050.493896)
(710460 4739115 2087.356934)
(710300 4739275 2064.789062)
(710460 4739275 2053.326904)
(710460 4739595 2032.11499)
(710460 4739755 2028.26001)
(710460 4739915 2074.406982)
(710620 4728715 1758.48999)
(710460 4728875 1833.688965)
(710620 4729035 2021.991943)
(710620 4729195 1993.045044)
(710620 4738795 1933.892944)
(710620 4738955 1924.154053)
(710460 4738955 1949.192017)
(710620 4739275 2058.843018)
(710460 4739435 2017.896973)
(710620 4739755 2004.772949)
(710620 4739915 2042.86499)
(710620 4740235 2061.47998)
(710780 4728235 1672.310059)
(710780 4728395 1747.567017)
(710780 4728715 1793.323975)
(710780 4728875 1931.536987)
(710780 4729035 2044.551025)
(710780 4729195 2042.041016)
(710620 4729355 2005.755981)
(710780 4729355 2161.725098)
(710780 4738795 1943.473022)
(710780 4738955 1912.369019)
(710780 4739275 1970.036011)
(710620 4739435 1985.446045)
(710780 4739915 2030.215942)
(710780 4740075 2032.72998)
(710940 4728395 1715.916016)
(710940 4728555 1799.715942)
(710940 4728715 1857.447021)
(710940 4728875 1939.024048)
(710940 4729035 2031.129028)
(710940 4738795 1894.858032)
(710940 4738955 1883.89502)
(710940 4740075 1990.667969)
(710940 4740235 1996.296021)
(711100 4728395 1738.661011)
(711100 4728555 1775.104004)
(711100 4728715 1847.932007)
(711100 4728875 1919.362061)
(711100 4739275 1890.120972)
(711100 4740075 1959.479004)
(711260 4728395 1766.407959)
(711260 4728715 1819.947021)
(711260 4738955 1807.995972)
(711260 4739115 1806.243042)
(711260 4739275 1799.503052)
(711100 4739435 1885.277954)
(711260 4727595 1895.715942)
(711260 4727755 1913.713989)
(711420 4727755 1942.637939)
(711260 4727915 1927.64502)
(711420 4728555 1786.230957)
(711420 4728715 1832.44104)
(711260 4728875 1910.234009)
(711420 4728875 1905.20105)
(711260 4729035 2107.750977)
(711420 4738955 1846.954956)
(711420 4739275 1796.25)
(711420 4740075 1870.515015)
(711420 4740235 1880.209961)
(711420 4740395 1912.603027)
(711580 4727595 1887.19104)
(711580 4727755 1937.66394)
(711580 4728395 1863.787964)
(711580 4728555 1856.402954)
(711580 4728715 1863.735962)
(711580 4740235 1849.588013)
(711580 4740395 1874.904053)
(711580 4722635 1082.430054)
(711580 4722795 1122.932007)
(711740 4722795 1193.615967)
(711740 4727595 1855.857056)
(711740 4727755 1939.685059)
(711740 4728555 1909.529053)
(711740 4740235 1815.866943)
(711740 4740395 1841.865967)
(711740 4740715 1786.333008)
(711740 4740875 1783.724976)
(711740 4741035 1743.821045)
(711740 4722955 1247.27002)
(711900 4722955 1272.233032)
(711740 4723115 1276.16394)
(711900 4727595 1853.042969)
(711900 4727755 1936.192993)
(711900 4727915 2013.375977)
(711900 4740235 1768.71106)
(711900 4740395 1794.708984)
(711900 4740715 1763.654053)
(711900 4740875 1730.83606)
(712060 4723115 1368.754028)
(711900 4727275 1783.802002)
(712060 4727275 1782.589966)
(711900 4727435 1799.097046)
(712060 4727435 1865.071045)
(712060 4727595 1918.807983)
(712060 4727755 1963.255005)
(712060 4740235 1736.296997)
(712060 4740395 1754.80603)
(712060 4740555 1718.110962)
(712060 4740715 1698.823975)
(712060 4740875 1691.635986)
(712220 4722795 1266.791992)
(712220 4722955 1351.615967)
(712220 4727435 1847.712036)
(712220 4727595 1927.194946)
(712220 4740555 1677.421997)
(712380 4722635 1304.805054)
(712380 4722795 1311.404053)
(712380 4722955 1344.397949)
(712220 4727115 1659.993042)
(712380 4727115 1645.243042)
(712380 4727275 1718.812012)
(712380 4727435 1797.412964)
(712220 4727755 2014.052979)
(712380 4727755 1975.417969)
(712380 4740395 1668.714966)
(712540 4721675 1040.680054)
(712540 4722635 1345.592041)
(712540 4727435 1788.838989)
(712540 4727595 1850.871948)
(712540 4727755 1907.572998)
(712380 4727915 2028.737061)
(712700 4721355 1030.264038)
(712540 4721515 1036.712036)
(712700 4721675 1055.737061)
(712540 4723115 1448.125)
(712700 4723115 1454.475952)
(712700 4723275 1491.969971)
(712540 4723275 1476.436035)
(712540 4725195 1559.135986)
(712700 4725195 1655.724976)
(712540 4725355 1617.907959)
(712700 4725355 1634.005981)
(712540 4725675 1712.895996)
(712700 4725675 1754.869019)
(712700 4725995 1828.838013)
(712540 4726155 1916.844971)
(712700 4727595 1802.385986)
(712700 4727755 1847.780029)
(712540 4727915 1966.123047)
(712860 4721515 1099.750977)
(712860 4721675 1095.093018)
(712860 4721835 1076.564941)
(712860 4722315 1184.259033)
(712700 4723435 1538.302979)
(712860 4723435 1503.668945)
(712860 4725035 1669.995972)
(712860 4725195 1748.946045)
(712860 4725515 1763.097046)
(712860 4725835 1850.092041)
(712860 4725995 1851.803955)
(712700 4726155 1897.715942)
(712860 4727275 1699.416016)
(712860 4727435 1764.66394)
(712860 4727755 1781.932983)
(712700 4727915 1883.987061)
(712860 4727915 1806.235962)
(713020 4721355 1074.516968)
(713020 4721515 1153.55896)
(713020 4721835 1161.473022)
(713020 4721995 1149.295044)
(713020 4722155 1178.334961)
(713020 4722315 1135.140991)
(713020 4722475 1170.233032)
(713020 4722635 1229.027954)
(712860 4723595 1561.555054)
(713020 4723595 1531.541016)
(713020 4725355 1807.350952)
(713020 4725515 1794.156982)
(713020 4725675 1862.557983)
(713020 4725835 1939.895996)
(713020 4727275 1776.962036)
(713020 4727435 1750.161011)
(713025 4721195 1018.705017)
(713180 4721355 1081.678955)
(713180 4721835 1242.005981)
(713180 4721995 1235.939941)
(713180 4722155 1219.255005)
(713180 4722475 1238.947998)
(713180 4722635 1196.572998)
(713180 4722795 1272.880981)
(713180 4722955 1314.94397)
(713180 4723115 1351.93396)
(713180 4723275 1405.572998)
(713180 4723435 1464.97998)
(713020 4724715 1696.52002)
(713180 4724715 1748.610962)
(713180 4725195 1875.251953)
(713180 4725355 1898.751953)
(713180 4725515 1895.948975)
(713180 4725675 1903.275024)
(713180 4727275 1868.005005)
(713180 4727435 1842.975952)
(713020 4741035 1762.366943)
(713340 4721355 1135.134033)
(713340 4721515 1132.904053)
(713340 4721835 1280.759033)
(713340 4722155 1313.776978)
(713180 4722315 1232.253052)
(713340 4722635 1230.980957)
(713340 4722795 1254.280029)
(713340 4722955 1280.349976)
(713340 4723115 1319.10498)
(713340 4723275 1361.525024)
(713340 4723435 1422.129028)
(713180 4723595 1517.052979)
(713340 4723595 1455.084961)
(713340 4723755 1483.478027)
(713180 4723755 1554.370972)
(713180 4724555 1751.843018)
(713340 4724555 1831.156982)
(713340 4724715 1846.089966)
(713340 4724875 1878.748047)
(713340 4725035 1926.171021)
(713340 4725195 1926.953979)
(713340 4725355 1946.130005)
(713340 4725515 1966.545044)
(713340 4740715 1698.53894)
(713500 4721515 1218.348999)
(713500 4721995 1341.878052)
(713500 4723915 1546.286987)
(713500 4724075 1569.255005)
(713340 4724075 1614.031006)
(713340 4724235 1689.628052)
(713500 4724715 1889.828979)
(713660 4723595 1486.930054)
(713500 4723755 1497.927002)
(713660 4724075 1679.159058)
(713500 4724235 1670.79895)
(713660 4740715 1723.225952)
(713660 4723435 1482.807983)
(713820 4723595 1582.355957)
(713820 4723755 1568.661987)
(713820 4723915 1623.120972)
(713820 4740235 1624.845947)
(713820 4740395 1645.276978)
(713660 4740395 1646.110962)
(713820 4740555 1688.234985)
(713820 4740715 1765.319946)
(713820 4740875 1782.475952)
(713980 4723435 1618.81604)
(713980 4723595 1624.432983)
(713980 4723755 1670.616943)
(713980 4739915 1563.579956)
(713820 4740075 1601.03894)
(713980 4740235 1637.620972)
(713980 4740715 1810.364014)
(713980 4740875 1821.615967)
(714140 4723435 1716.540039)
(714140 4723595 1720.812012)
(713980 4739755 1552.06897)
(714140 4739755 1547.136963)
(714140 4740235 1647.130981)
(714140 4740715 1823.697021)
(714140 4740875 1873.265991)
(714140 4741035 1873.272949)
(714140 4739595 1528.599976)
(714300 4739595 1525.067017)
(714300 4739755 1548.110962)
(714300 4740075 1608.505005)
(714460 4739755 1552.006958)
(714460 4740075 1587.868042)
(714300 4740235 1646.186035)
(714620 4739915 1589.723999)
(714620 4740075 1593.858032)
(714780 4727595 1810.598999)
(714620 4727755 1864.088989)
(714940 4727275 1694.805054)
(714780 4727435 1739.844971)
(714940 4727595 1833.021973)
(714940 4727755 1907.483032)
(715100 4727595 1858.718994)
(715260 4727275 1690.286987)
(715260 4727595 1869.421021)
(715100 4727755 1938.046021)
(715260 4727755 1945.625)
(715260 4727115 1646.052979)
(715420 4727595 1891.699951)
(715580 4727115 1660.358032)
(715580 4727435 1853.76001)
(715740 4726955 1592.435059)
(715740 4727115 1645.241943)
(715740 4727435 1882.359985)
(715580 4727595 1937.453003)
(715740 4727595 1971.994019)
(715740 4738635 1510.012939)
(715580 4738795 1495.619019)
(715580 4738955 1495.730957)
(715900 4726955 1577.005981)
(715900 4727115 1636.074951)
(715900 4727275 1787.53894)
(715900 4738635 1516.848999)
(716060 4727115 1629.646973)
(715900 4727435 1900.078979)
(716060 4738475 1493.362061)
(716060 4738635 1462.267944)
(715900 4738795 1497.734009)
(716220 4726955 1544.162964)
(716220 4727115 1642.561035)
(716220 4738475 1504.692993)
(716220 4738635 1475.03894)
(716220 4739275 1583.909058)
(716060 4739275 1594.665039)
(716380 4726955 1533.470947)
(716380 4727435 1849.305054)
(716220 4733195 1604.81604)
(716380 4733195 1639.692017)
(716220 4733355 1612.55603)
(716380 4733355 1687.714966)
(716380 4738635 1452.60498)
(716220 4738795 1469.869995)
(716380 4738795 1444.843994)
(716380 4738955 1491.391968)
(716380 4739115 1500.828003)
(716220 4739435 1595.584961)
(716380 4739435 1606.036987)
(716540 4726955 1536.144043)
(716540 4727115 1626.167969)
(716540 4727275 1758.285034)
(716540 4732875 1546.074951)
(716380 4733035 1581.379028)
(716540 4733195 1636.688965)
(716540 4738475 1476.292969)
(716540 4738635 1435.057007)
(716540 4739115 1491.416992)
(716540 4739275 1526.016968)
(716380 4739755 1640.02002)
(716540 4739755 1650.69397)
(716540 4739915 1688.020996)
(716380 4739915 1668.171997)
(716540 4740075 1726.453979)
(716380 4740075 1711.145996)
(716700 4727115 1624.607056)
(716700 4727435 1855.685059)
(716540 4727595 1945.256958)
(716700 4727595 1915.857056)
(716540 4732715 1533.276001)
(716700 4732715 1547.626953)
(716540 4733355 1711.715942)
(716700 4733355 1666.68396)
(716700 4733515 1759.452026)
(716540 4733515 1741.509033)
(716700 4738475 1460.437012)
(716700 4738635 1422.099976)
(716540 4738795 1433.186035)
(716700 4739275 1497.987061)
(716700 4739435 1579.366943)
(716700 4739915 1667.178955)
(716700 4740075 1722.532959)
(716860 4726955 1531.963013)
(716860 4727115 1607.139038)
(716860 4727275 1706.113037)
(716860 4727435 1775.064941)
(716700 4732555 1536.574951)
(716860 4739275 1486.244019)
(716700 4740235 1800.478027)
(716860 4740235 1829.337036)
(716860 4740875 2175.638916)
(716700 4741035 2122.189941)
(716860 4726795 1489.397949)
(717020 4726795 1467.904053)
(717020 4726955 1527.182983)
(717020 4727115 1609.469971)
(717020 4733035 1616.644043)
(717020 4733355 1701.547974)
(717020 4736075 1599.31604)
(717020 4736235 1598.074951)
(716860 4736235 1660.885986)
(717020 4739275 1511.588013)
(716860 4740395 1883.265991)
(717020 4740395 1936.506958)
(716860 4740715 2212.710938)
(717020 4740715 2277.085938)
(717020 4740875 2110.583984)
(717180 4726795 1439.541016)
(717180 4726955 1489.573975)
(717180 4727115 1619.488037)
(717180 4727275 1682.159058)
(717020 4727435 1757.712036)
(717020 4727595 1829.321045)
(717180 4727595 1906.277954)
(717180 4732555 1503.411987)
(717180 4735915 1716.016968)
(717180 4736075 1629.239014)
(717180 4736235 1561.031982)
(717020 4736395 1668.706055)
(717020 4739115 1450.050049)
(717180 4739115 1421.156006)
(717180 4739275 1502.374023)
(717180 4740235 1915.677002)
(717180 4740395 1975.927002)
(717020 4740555 2007.79895)
(717180 4740875 2119.495117)
(717180 4741035 2013.824951)
(717340 4726955 1488.214966)
(717340 4732395 1428.803955)
(717340 4733035 1621.084961)
(717340 4733195 1664.519043)
(717180 4733195 1661.274048)
(717340 4735915 1710.875)
(717340 4736075 1613.916992)
(717340 4738475 1376.447021)
(717340 4739115 1411.637939)
(717340 4740075 1815.524048)
(717340 4740235 1818.83606)
(717340 4740875 2002.725952)
(717500 4726795 1391.635986)
(717500 4726955 1468.207031)
(717340 4732235 1391.202026)
(717500 4732235 1387.45105)
(717500 4732395 1428.422974)
(717500 4732875 1593.275024)
(717500 4736395 1660.338013)
(717340 4738315 1391.087036)
(717500 4739115 1423.766968)
(717500 4739435 1526.732056)
(717500 4739915 1763.282959)
(717500 4740075 1731.579956)
(717500 4740235 1750.458008)
(717340 4740395 1910.892944)
(717660 4726795 1371.69104)
(717660 4726955 1489.468994)
(717660 4727115 1575.793945)
(717500 4732075 1383.637939)
(717660 4732875 1589.765015)
(717500 4733035 1658.666016)
(717500 4734955 1668.70105)
(717660 4734955 1619.758057)
(717500 4735115 1633.517944)
(717660 4736075 1550.051025)
(717500 4736555 1775.850952)
(717660 4738315 1354.791016)
(717660 4738475 1324.427979)
(717660 4738955 1360.890015)
(717660 4739115 1431.064941)
(717660 4739435 1541.046021)
(717660 4740235 1683.762939)
(717500 4740395 1820.20105)
(717660 4740395 1746.034058)
(717820 4726955 1465.833984)
(717820 4732395 1476.338013)
(717820 4732555 1520.935059)
(717820 4732875 1640.384033)
(717660 4733035 1654.192993)
(717820 4734955 1592.524048)
(717820 4735115 1555.505981)
(717660 4735115 1593.280029)
(717660 4735435 1567.046021)
(717820 4735435 1539.287964)
(717660 4735595 1592.465942)
(717820 4735595 1552.01001)
(717660 4735755 1661.573975)
(717820 4736235 1635.588989)
(717820 4738955 1350.42395)
(717820 4739115 1409.879028)
(717820 4739275 1464.616943)
(717820 4740075 1640.380005)
(717820 4740235 1615.744019)
(717820 4726795 1338.219971)
(717980 4726955 1481.275024)
(717820 4727115 1560.760986)
(717980 4732235 1430.495972)
(717980 4732395 1475.285034)
(717980 4732555 1514.744019)
(717980 4732875 1612.437988)
(717820 4733035 1630.885986)
(717980 4733195 1572.142944)
(717980 4733355 1582.985962)
(717820 4733355 1638.345947)
(717980 4735115 1524.850952)
(717820 4735275 1557.758057)
(717980 4735755 1629.475952)
(717820 4736395 1736.010986)
(717980 4738475 1289.245972)
(717980 4738635 1299.369995)
(717980 4739115 1332.087036)
(717980 4739275 1387.282959)
(717820 4739435 1498.769043)
(717980 4739435 1447.375977)
(718140 4726795 1298.437988)
(718140 4732075 1369.019043)
(718140 4732235 1413.873047)
(718140 4732395 1455.579956)
(718140 4732555 1510.82605)
(718140 4733195 1539.621948)
(718140 4733515 1579.437988)
(717980 4733515 1599.80603)
(718140 4734795 1566.314941)
(718140 4734955 1502.022949)
(717980 4734955 1521.901978)
(718140 4735115 1456.178955)
(717980 4735275 1525.86499)
(718140 4735435 1450.472046)
(718140 4735595 1442.928955)
(718140 4735755 1565.266968)
(718140 4735915 1580.20105)
(718140 4739435 1400.948975)
(717980 4739755 1526.116943)
(718300 4726635 1235.875)
(718300 4726795 1306.633057)
(718300 4731915 1311.435059)
(718300 4732075 1364.103027)
(718300 4732235 1437.261963)
(718300 4732395 1449.832031)
(718300 4732555 1484.030029)
(718300 4732875 1477.477051)
(718140 4733035 1555.58606)
(718300 4733355 1538.062988)
(718300 4733675 1598.093994)
(718140 4733675 1625.984985)
(718300 4734955 1476.94104)
(718300 4735115 1431.72998)
(718140 4735275 1468.833984)
(718300 4735595 1413.31897)
(718300 4735755 1429.177979)
(718300 4736395 1755.147949)
(718300 4739275 1336.899048)
(718300 4739435 1346.125)
(718460 4726635 1174.302979)
(718460 4731915 1300.052002)
(718460 4732075 1339.432983)
(718460 4732235 1398.957031)
(718460 4732555 1452.953979)
(718460 4732715 1468.812012)
(718460 4732875 1444.246948)
(718460 4733035 1467.571045)
(718460 4733195 1482.702026)
(718460 4733355 1515.58606)
(718460 4733515 1540.004028)
(718300 4733835 1617.003052)
(718460 4733835 1574.084961)
(718460 4733995 1559.609985)
(718300 4733995 1587.069946)
(718460 4734155 1515.515991)
(718300 4734315 1568.883057)
(718300 4734795 1518.964966)
(718460 4734795 1481.073975)
(718460 4734955 1439.896973)
(718460 4735115 1397.685059)
(718460 4735435 1381.581055)
(718460 4735595 1396.109009)
(718460 4736235 1771.983032)
(718620 4731915 1248.46106)
(718620 4732075 1326.598999)
(718460 4732395 1438.019043)
(718620 4732395 1397.859985)
(718620 4732555 1404.706055)
(718620 4732715 1414.407959)
(718620 4732875 1427.280029)
(718620 4733195 1498.635986)
(718620 4733515 1505.389038)
(718620 4734155 1477.532959)
(718620 4734315 1451.786011)
(718460 4734315 1506.244019)
(718620 4735275 1304.744995)
(718620 4735435 1341.227051)
(718620 4735595 1452.156982)
(718620 4735755 1613.723999)
(718620 4735915 1685.255981)
(718620 4736075 1698.473999)
(718620 4736235 1690.687012)
(718780 4726635 1116.302979)
(718780 4726795 1274.182007)
(718780 4726955 1366.355957)
(718780 4731915 1280.218018)
(718780 4732235 1338.244995)
(718620 4733035 1456.985962)
(718780 4733035 1449.994019)
(718780 4733515 1463.86499)
(718620 4733675 1501.270996)
(718780 4733675 1472.358032)
(718780 4733995 1486.437012)
(718620 4734475 1436.932983)
(718780 4734475 1381.453003)
(718780 4735435 1377.761963)
(718780 4735595 1505.795044)
(718780 4735755 1666.436035)
(718780 4735915 1641.23999)
(718780 4736075 1615.437012)
(718780 4736235 1639.090942)
(718620 4736395 1638.739014)
(718940 4721675 871.1279907)
(718940 4721835 880.2009888)
(718780 4721835 892.1790161)
(718940 4726635 1105.404053)
(718940 4731755 1174.715942)
(718940 4731915 1257.297974)
(718940 4733515 1441.291016)
(718940 4733675 1436.625977)
(718780 4734635 1348.843994)
(718940 4735115 1236.652954)
(718940 4735275 1278.124023)
(718940 4735435 1368.68396)
(718940 4735595 1689.340942)
(718940 4738155 1276.953979)
(718780 4738155 1254.44397)
(718780 4738315 1257.483032)
(718940 4721355 874.1140137)
(719100 4721355 849.8060303)
(718940 4721995 874.0419922)
(719100 4726635 1040.223999)
(719100 4731915 1213.31604)
(718940 4732075 1290.644043)
(718940 4732875 1397.713013)
(719100 4733035 1399.046021)
(718940 4733195 1438.379028)
(719100 4733515 1409.671021)
(719100 4734155 1405.57605)
(719100 4734315 1354.199951)
(718940 4736075 1585.822021)
(719100 4736075 1535.131958)
(718940 4736235 1568.114014)
(719100 4736235 1521.344971)
(719100 4737835 1254.400024)
(719100 4737995 1288.01001)
(719100 4738155 1304.848022)
(719100 4738315 1322.883057)
(719105 4721195 844.4429932)
(719260 4721675 852.4349976)
(719260 4733035 1373.177979)
(719100 4733195 1464.854004)
(719260 4733195 1405.480957)
(719100 4733835 1410.188965)
(719260 4733835 1368.493042)
(719100 4733995 1417.709961)
(719260 4733995 1396.520996)
(719260 4734155 1380.08606)
(719260 4734315 1357.209961)
(719260 4735435 1344.156982)
(719260 4735595 1587.578979)
(719260 4735755 1606.494019)
(719260 4735915 1548.454956)
(719100 4735915 1588.136963)
(719260 4737835 1303.274048)
(719260 4737995 1342.04895)
(719420 4721675 839.5809937)
(719420 4732875 1294.88501)
(719420 4733035 1337.015991)
(719420 4733195 1362.494019)
(719260 4733355 1433.911011)
(719420 4733355 1390.396973)
(719420 4733515 1435.879028)
(719260 4733515 1432.093018)
(719420 4733675 1409.657959)
(719420 4733835 1362.073975)
(719420 4733995 1377.984985)
(719420 4735595 1524.092041)
(719260 4737675 1254.401001)
(719420 4737675 1275.619995)
(719420 4737835 1362.435059)
(719420 4737995 1406.399048)
(719580 4721675 841.492981)
(719580 4721835 844.2990112)
(719580 4721995 843.7160034)
(719580 4722155 846.15802)
(719420 4722315 848.6339722)
(719580 4722315 849.6149902)
(719580 4732875 1268.567017)
(719580 4733035 1306.542969)
(719580 4733195 1330.035034)
(719580 4733355 1355.167969)
(719580 4733515 1379.857056)
(719580 4733675 1390.078979)
(719580 4733835 1348.849976)
(719420 4734155 1342.767944)
(719580 4734155 1308.400024)
(719420 4734315 1323.642944)
(719580 4734475 1243.472046)
(719420 4734635 1269.953979)
(719580 4734635 1222.152954)
(719580 4735435 1277.282959)
(719580 4735595 1407.16394)
(719580 4737515 1269.859009)
(719580 4737675 1359.76001)
(719580 4737835 1452.362061)