/*--------------------------------*- C++ -*----------------------------------*\
  =========                 |
  \\      /  F ield         | OpenFOAM: The Open Source CFD Toolbox
   \\    /   O peration     | Website:  https://openfoam.org
    \\  /    A nd           | Version:  6
     \\/     M anipulation  |
\*---------------------------------------------------------------------------*/
FoamFile
{
    version     2.0;
    format      ascii;
    class       featureEdgeMesh;
    location    "constant/triSurface";
    object      Matorral_boscoso_de_transicion.eMesh;
}
// * * * * * * * * * * * * * * * * * * * * * * * * * * * * * * * * * * * * * //


// points:

709
(
(707900 4726635 1697.490967)
(720380 4738795 2068.889893)
(702460 4724075 1150.457031)
(702460 4724715 1218.004028)
(702620 4724715 1233.390991)
(702460 4731595 1051.218018)
(702620 4731595 1016.242981)
(702460 4731755 1055.714966)
(702780 4724075 1169.416992)
(702780 4724235 1232.446045)
(702780 4724555 1252.687012)
(702780 4737515 1647.491943)
(702780 4737675 1722.319946)
(702620 4737675 1747.545044)
(702940 4724235 1248.207031)
(702940 4724555 1297.629028)
(702780 4736875 1504.723022)
(702940 4736875 1462.666992)
(702780 4737035 1611.071045)
(702940 4737035 1538.479004)
(702940 4737515 1567.345947)
(702940 4737675 1617.80896)
(702780 4737835 1705.526001)
(702940 4725515 1013.132996)
(702940 4725675 1049.843018)
(703100 4725675 1044.928955)
(703100 4725835 1087.390015)
(702940 4725835 1071.990967)
(703100 4736715 1279.55896)
(703100 4736875 1452.020996)
(703100 4737515 1457.396973)
(703100 4737675 1554.833008)
(702940 4737835 1631.602051)
(703260 4725675 1050.863037)
(703260 4725835 1059.155029)
(703260 4725995 1060.732056)
(703100 4725995 1106.415039)
(703260 4736715 1229.160034)
(703260 4736875 1344.777954)
(703260 4737515 1407.375977)
(703260 4737675 1400.490967)
(703100 4737835 1533.360962)
(703260 4726315 1183.666016)
(703420 4726315 1173.649048)
(703420 4736715 1218.978027)
(703260 4737035 1425.983032)
(703260 4737355 1325.855957)
(703420 4737355 1280.177979)
(703420 4737515 1361.942993)
(703420 4737675 1304.067993)
(703260 4737835 1423.487061)
(703420 4737835 1314.109985)
(703580 4726155 1186.157959)
(703580 4726315 1223.489014)
(703420 4726475 1230.891968)
(703580 4726475 1262.22998)
(703580 4736715 1195.77002)
(703580 4736875 1198.93103)
(703580 4737035 1211.042969)
(703580 4737195 1229.989014)
(703420 4737195 1279.281006)
(703580 4737355 1234.734009)
(703740 4725515 1123.786987)
(703740 4725995 1174.197998)
(703740 4726315 1249.843018)
(703740 4736715 1258.254028)
(703740 4736875 1284.958984)
(703740 4737195 1247.167969)
(703900 4725355 1147.276001)
(703900 4725995 1241.168945)
(703740 4726155 1147.614014)
(704060 4725995 1267.859009)
(703900 4726155 1229.741943)
(704060 4726155 1307.046021)
(704220 4725035 1090.093994)
(704060 4725195 1094.869995)
(704220 4725835 1275.300049)
(704220 4725995 1295.130005)
(704220 4726155 1343.853027)
(704060 4726315 1303.30603)
(704220 4726315 1366.990967)
(704380 4725035 1118.456055)
(704380 4725355 1155.540039)
(704380 4725515 1186.712036)
(704380 4725835 1309.708984)
(704380 4725995 1327.187012)
(704380 4724875 1136.713989)
(704540 4725515 1224.708984)
(704540 4725675 1258.761963)
(704540 4725835 1318.276001)
(704700 4725195 1231.771973)
(704700 4725515 1255.218994)
(704700 4725675 1284.203979)
(704860 4725195 1256.182983)
(704700 4725355 1239.166992)
(704700 4726955 1616.857056)
(704860 4726955 1651.557007)
(704700 4727115 1677.621948)
(705020 4724875 1183.546997)
(705020 4725035 1220.630981)
(705020 4725195 1285.079956)
(704860 4725355 1291.57605)
(704860 4726635 1570.546021)
(705020 4726635 1602.862061)
(705020 4726955 1687.020996)
(704860 4727115 1709.621948)
(705180 4724875 1218.381958)
(705180 4725035 1221.812988)
(705180 4726475 1592.901001)
(705180 4726955 1724.858032)
(705020 4727115 1743.687988)
(705180 4727115 1783.411987)
(705340 4725035 1217.171997)
(705340 4725195 1254.057983)
(705340 4726475 1613.498047)
(705340 4726635 1669.406006)
(705500 4726475 1638.422974)
(705500 4726955 1783.633057)
(705660 4726955 1793.670044)
(705500 4727115 1836.713013)
(705820 4726955 1801.665039)
(705980 4726475 1640.987061)
(705820 4727115 1859.916992)
(706140 4726315 1582.16394)
(706140 4727115 1873.977051)
(706300 4725995 1636.547974)
(706140 4726155 1531.021973)
(706300 4726955 1847.525024)
(706460 4725355 1531.607056)
(706460 4725515 1576.215942)
(706300 4725515 1557.982056)
(706460 4726795 1862.875)
(706460 4726955 1875.234009)
(706620 4726475 1869.630005)
(706620 4726635 1907.073975)
(706620 4726795 1942.394043)
(706620 4726955 1976.618042)
(706460 4727115 1926.041016)
(706620 4727115 1978.177002)
(706780 4725035 1487.297974)
(706780 4725195 1526.088989)
(706620 4725195 1520.442993)
(706780 4725515 1624.061035)
(706780 4725675 1641.072021)
(706780 4726315 1805.422974)
(706780 4726475 1877.432983)
(706780 4726795 1999.859985)
(706780 4727115 2064.094971)
(706620 4727275 1982.921997)
(706940 4725355 1505.862061)
(706940 4725515 1554.613037)
(706940 4725675 1554.670044)
(706940 4725995 1649.709961)
(706940 4726155 1697.745972)
(706940 4726315 1742.682983)
(707100 4725195 1382.892944)
(707100 4725515 1448.827026)
(707100 4725835 1520.646973)
(707100 4725995 1566.240967)
(707100 4726155 1608.78894)
(707100 4726475 1707.020996)
(707100 4726635 1808.666016)
(707260 4726635 1736.633057)
(707260 4724395 1174.003052)
(707420 4724555 1223.147949)
(707260 4724715 1197.357056)
(707420 4726155 1464.957031)
(707420 4726635 1687.137939)
(707260 4726795 1755.520996)
(707420 4724715 1240.932983)
(707580 4724715 1301.854004)
(707420 4725995 1405.345947)
(707580 4725995 1451.19104)
(707580 4726155 1420.661987)
(707580 4726315 1478.990967)
(707420 4727115 1796.167969)
(707740 4724715 1313.129028)
(707580 4724875 1333.435059)
(707740 4726315 1510.129028)
(707740 4726795 1634.261963)
(707900 4723755 1094.978027)
(707900 4724235 1180.582031)
(707900 4724555 1221.834961)
(707900 4724875 1383.69104)
(707900 4726315 1611.634033)
(707900 4726475 1610.46106)
(707740 4726955 1656.232056)
(707900 4726955 1753.980957)
(708060 4723755 1139.296997)
(708060 4723915 1175.262939)
(708060 4724075 1180.029053)
(708060 4724555 1240.406006)
(708060 4724715 1266.207031)
(708060 4724875 1354.964966)
(707900 4725035 1471.484985)
(708060 4726475 1704.546021)
(708060 4726635 1703.645996)
(708060 4726955 1864.957031)
(707900 4727115 1813.750977)
(708060 4727115 1853.546021)
(708220 4723435 1166.608032)
(708060 4723595 1118.630981)
(708220 4723755 1195.706055)
(708220 4724075 1248.062988)
(708220 4724235 1303.360962)
(708220 4724715 1287.026001)
(708220 4724875 1288.161011)
(708220 4725035 1377.814941)
(708060 4725035 1397.598999)
(708220 4726955 1949.129028)
(708220 4723275 1161.379028)
(708380 4723275 1103.469971)
(708380 4723595 1271.23999)
(708380 4723755 1276.130981)
(708380 4724875 1340.718994)
(708380 4725035 1341.786011)
(708220 4725195 1454.154053)
(708540 4723435 1170.406006)
(708540 4723595 1221.154053)
(708540 4723755 1257.974976)
(708540 4723915 1322.880005)
(708540 4724075 1393.100952)
(708380 4724075 1329.166016)
(708700 4723435 1141.862061)
(708700 4723755 1207.296021)
(708700 4723915 1281.939941)
(708700 4724075 1344.593994)
(708540 4724235 1407.970947)
(708700 4724235 1387.583984)
(708700 4724395 1466.743042)
(708540 4724395 1450.496948)
(708860 4723755 1200.676025)
(708860 4723915 1219.909058)
(708860 4724075 1293.125)
(708860 4724235 1355.333984)
(708700 4724715 1554.234009)
(708860 4724715 1551.266968)
(709020 4723915 1284.645996)
(709020 4724075 1305.553955)
(709020 4724235 1354.072998)
(709020 4724395 1392.373047)
(708860 4724875 1602.425049)
(709020 4724875 1615.305054)
(709020 4723595 1273.78894)
(709020 4723755 1292.376953)
(709180 4723755 1295.552002)
(709180 4724235 1404.75)
(709180 4724395 1458.104004)
(709020 4725035 1658.848999)
(709340 4723275 1201.230957)
(709340 4723435 1246.352051)
(709340 4723755 1289.537964)
(709180 4723915 1347.067993)
(709340 4723915 1301.95105)
(709180 4724075 1381.031006)
(709340 4724075 1369.485962)
(709340 4724235 1419.916992)
(709340 4724395 1480.027954)
(709340 4724555 1547.412964)
(709340 4724875 1668.327026)
(709340 4725035 1721.781006)
(709500 4723275 1230.112061)
(709500 4723435 1271.661987)
(709500 4724235 1391.203003)
(709500 4724395 1473.595947)
(709500 4724555 1531.301025)
(709500 4724715 1577.850952)
(709500 4724875 1652.995972)
(709660 4723275 1272.998047)
(709660 4723435 1283.135986)
(709660 4724715 1592.755981)
(709660 4724875 1651.23999)
(709500 4725035 1713.993042)
(709660 4725035 1719.718018)
(709820 4723755 1430.208984)
(709820 4724555 1597.905029)
(709820 4724715 1643.165039)
(709820 4724875 1683.880981)
(709980 4724555 1644.156006)
(710140 4723435 1454.036011)
(710140 4727595 1453.706055)
(710300 4727595 1486.672974)
(710140 4727755 1465.973999)
(710300 4727755 1512.850952)
(710300 4727915 1558.213989)
(710140 4727915 1485.439941)
(710140 4728075 1502.97998)
(710460 4727755 1552.920044)
(710460 4727915 1589.102051)
(710460 4728075 1658.573975)
(710300 4728075 1576.704956)
(710620 4727915 1643.918945)
(710460 4728235 1659.897949)
(710780 4728075 1681.052002)
(710780 4728235 1672.310059)
(710940 4728235 1690.281982)
(710780 4728395 1747.567017)
(710940 4728395 1715.916016)
(711100 4728075 1790.197021)
(711100 4728235 1732.666992)
(711100 4728395 1738.661011)
(710940 4728555 1799.715942)
(711100 4728555 1775.104004)
(710940 4728715 1857.447021)
(711260 4723115 1105.609985)
(711100 4723275 1136.508057)
(711260 4723435 1122.660034)
(711100 4723595 1122.203003)
(711260 4723595 1188.178955)
(711260 4723755 1219.343018)
(711100 4723755 1145.396973)
(711260 4728075 1862.113037)
(711260 4728235 1812.875977)
(711260 4728395 1766.407959)
(711260 4728555 1776.024048)
(711420 4723115 1124.680054)
(711420 4723275 1189.290039)
(711420 4723435 1170.097046)
(711420 4722795 1090.31897)
(711580 4722955 1160.69397)
(711580 4723115 1201.253052)
(711580 4723275 1242.953003)
(711740 4722795 1193.615967)
(711740 4722955 1247.27002)
(711740 4738795 1932.526978)
(711740 4738955 1858.238037)
(711580 4738955 1847.177002)
(711900 4722955 1272.233032)
(711740 4723115 1276.16394)
(711900 4738795 2014.510986)
(711740 4739115 1814.758057)
(711900 4739115 1833.975952)
(712060 4723275 1403.159058)
(711900 4723275 1363.131958)
(711900 4738635 2025.910034)
(712060 4738635 2163.808105)
(712060 4738955 1928.593018)
(712220 4722955 1351.615967)
(712060 4723435 1446.699951)
(712220 4723435 1475.890991)
(712060 4723595 1471.514038)
(712220 4738955 1945.510986)
(712060 4739115 1888.864014)
(712380 4722635 1304.805054)
(712380 4722795 1311.404053)
(712220 4722795 1266.791992)
(712380 4722955 1344.397949)
(712380 4738635 2165.927002)
(712380 4738795 2067.545898)
(712380 4738955 1948.60498)
(712220 4739115 1899.353027)
(712540 4722635 1345.592041)
(712540 4723115 1448.125)
(712540 4723275 1476.436035)
(712540 4723435 1523.511963)
(712540 4723595 1558.56604)
(712540 4738475 2157.745117)
(712540 4738635 2072.149902)
(712700 4723115 1454.475952)
(712700 4723275 1491.969971)
(712700 4738475 2073.457031)
(712700 4738795 1970.652954)
(712700 4738955 1888.261963)
(712860 4738795 1968.339966)
(712860 4738955 1928.45105)
(712700 4739115 1836.802002)
(713025 4721195 1018.705017)
(713180 4721355 1081.678955)
(713340 4721355 1135.134033)
(713340 4721515 1132.904053)
(713500 4721515 1218.348999)
(713340 4721995 1311.484009)
(713500 4721995 1341.878052)
(713340 4722155 1313.776978)
(713500 4722155 1410.735962)
(713500 4722315 1429.062988)
(713820 4722315 1477.852051)
(713820 4722475 1495.682007)
(713980 4722475 1501.959961)
(713980 4722635 1534.365967)
(713820 4722635 1472.910034)
(713985 4721195 1078.194946)
(714140 4721355 1100.083984)
(714140 4722635 1526.30603)
(713980 4722795 1560.078979)
(714140 4722795 1552.08606)
(713980 4722955 1586.636963)
(713980 4723275 1628.741943)
(714140 4723275 1690.301025)
(714300 4721355 1116.973999)
(714300 4721515 1153.237061)
(714300 4722475 1468.436035)
(714300 4722635 1500.072021)
(714300 4722795 1544.092041)
(714140 4723435 1716.540039)
(714300 4723435 1741.894043)
(714460 4721515 1157.650024)
(714460 4721995 1312.277954)
(714460 4722155 1356.655029)
(714460 4722315 1383.92395)
(714460 4722795 1526.504028)
(714460 4722955 1576.780029)
(714460 4723275 1673.430054)
(714620 4721355 1170.755005)
(714620 4721835 1246.665039)
(714620 4721995 1297.228027)
(714620 4722315 1394.891968)
(714460 4722475 1444.458008)
(714620 4722475 1436.850952)
(714460 4722635 1485.011963)
(714620 4722955 1567.488037)
(714620 4723115 1615.57605)
(714620 4723275 1669.156982)
(714780 4723115 1623.489014)
(714780 4722955 1570.670044)
(714940 4722955 1593.488037)
(717500 4727275 1660.791992)
(717500 4727435 1779.66394)
(717340 4727435 1793.644043)
(717500 4727595 1883.020996)
(717500 4727755 1999.822021)
(717340 4727755 2007.756958)
(717340 4727915 2123.310059)
(717500 4727115 1570.135986)
(717660 4727115 1575.793945)
(717660 4727435 1791.276001)
(717660 4727595 1906.057007)
(717660 4727755 2016.172974)
(717500 4727915 2036.093018)
(717820 4727275 1649.592041)
(717820 4727755 1989.662964)
(717660 4727915 2010.588013)
(717660 4729835 1583.494995)
(717820 4729835 1554.016968)
(717820 4729995 1561.667969)
(717660 4730155 1624.014038)
(717820 4730155 1550.052979)
(717660 4730315 1611.703979)
(717820 4730315 1562.251953)
(717660 4730635 1560.588989)
(717820 4730635 1540.470947)
(717660 4730795 1533.42395)
(717980 4727755 2027.416992)
(717980 4729195 1565.521973)
(717820 4729355 1595.282959)
(717980 4729515 1477.078003)
(717980 4730155 1511.852051)
(717980 4730315 1530.911987)
(717820 4730475 1557.623047)
(717980 4730475 1506.722046)
(717980 4730635 1501.819946)
(717980 4730795 1492.470947)
(718140 4727595 1871.656006)
(718140 4729355 1441.560059)
(718140 4729835 1420.853027)
(718140 4729995 1473.776001)
(718140 4730315 1488.035034)
(718140 4730635 1475.598999)
(718300 4727275 1682.918945)
(718300 4727595 1894.969971)
(718140 4729195 1495.880005)
(718300 4729195 1403.541016)
(718300 4729675 1374.30603)
(718300 4727115 1554.708008)
(718300 4729035 1422.890015)
(718460 4729035 1378.046021)
(718460 4729195 1354.015015)
(718460 4729515 1330.906982)
(718460 4729675 1355.953979)
(718300 4729835 1371.922974)
(718460 4729835 1353.927979)
(718300 4729995 1423.446045)
(718460 4729995 1342.743042)
(718620 4727115 1549.637939)
(718620 4727275 1666.530029)
(718620 4729195 1301.814941)
(718620 4729355 1298.620972)
(718620 4729515 1291.337036)
(718620 4729675 1331.449951)
(718620 4729995 1315.498047)
(718460 4730155 1371.44397)
(718620 4730155 1329.182007)
(718780 4727115 1446.618042)
(718780 4729355 1250.807983)
(718780 4729675 1331.667969)
(718780 4729835 1398.010986)
(718780 4729995 1334.810059)
(718780 4730155 1294.457031)
(718620 4730475 1331.501953)
(718940 4729515 1263.699951)
(718940 4729835 1385.438965)
(718940 4730155 1272.291016)
(719100 4729515 1220.82605)
(719100 4729675 1286.725952)
(719100 4729835 1349.313965)
(718940 4729995 1339.823975)
(719260 4729515 1174.776001)
(719260 4729675 1241.885986)
(719260 4729995 1355.677979)
(719420 4729515 1135.840942)
(719420 4729675 1186.662964)
(719420 4729995 1322.427979)
(719260 4730155 1286.353027)
(719420 4730155 1323)
(719580 4729675 1087.889038)
(719580 4729835 1194.985962)
(719580 4730155 1275.428955)
(719420 4730315 1232.295044)
(719580 4730315 1260.253052)
(719740 4729835 1137.019043)
(719740 4729995 1172.555054)
(719740 4739275 1689.583008)
(719580 4739435 1579.296021)
(719900 4729995 1088.708984)
(719740 4738955 1820.780029)
(719900 4738955 1845.687012)
(719900 4739435 1652.722046)
(720060 4738795 1969.474976)
(720060 4739275 1767.83606)
(720220 4738635 1938.285034)
(720220 4739275 1855.312012)
(720220 4739435 1778.51001)
(720060 4739435 1696.770996)
(720380 4738955 1970.260986)
(720380 4739115 1900.035034)
(720380 4739435 1811.467041)
(720220 4739595 1709.197021)
(720540 4738635 2123.374023)
(720540 4738795 2055.712891)
(720540 4738955 1974.515991)
(720540 4739115 1907.520996)
(720700 4738635 2155.761963)
(720700 4738795 2067.229004)
(720540 4739755 1736.824951)
(720860 4738635 2198.272949)
(720860 4739755 1888.936035)
(721020 4733835 1170.892944)
(721020 4733995 1177.18103)
(720860 4733995 1130.010986)
(721020 4739275 2033.512939)
(721180 4733995 1216.214966)
(721020 4734155 1184.144043)
(721180 4734155 1246.42395)
(721180 4739435 1983.525024)
(721340 4733995 1242.692993)
(721340 4734155 1285.829956)
(721180 4734315 1262.259033)
(721340 4739275 2096.610107)
(721340 4739435 2058.790039)
(721180 4739595 2043.479004)
(721340 4739595 2121.805908)
(721340 4739755 2241.672119)
(721180 4739755 2132.576904)
(721180 4739915 2087.349121)
(721340 4733835 1219.328003)
(721500 4733835 1247.543945)
(721340 4734315 1353.932983)
(721500 4734315 1382.740967)
(721500 4739275 2163.686035)
(721500 4739435 2148.947998)
(721500 4739595 2206.193115)
(721500 4739915 2257.353027)
(721500 4733675 1226.156006)
(721660 4733675 1196.233032)
(721660 4734155 1331.031006)
(721660 4734315 1440.360962)
(721500 4734475 1442.072021)
(721660 4734475 1487.889038)
(721660 4739435 2190.861084)
(721660 4739595 2293.25293)
(721660 4739755 2376.076904)
(721820 4733675 1178.488037)
(721820 4733835 1225.142944)
(721820 4734155 1393.753052)
(721820 4734315 1459.034058)
(721980 4733835 1212.506958)
(721980 4733995 1303.612061)
(722140 4733995 1307.749023)
(722300 4733835 1237.54895)
(702620 4724075 1185.822021)
(702460 4724235 1166.714966)
(702460 4724395 1184.567017)
(702460 4724555 1201.484009)
(702940 4724395 1283.595947)
(703100 4725515 1014.963989)
(703260 4725515 1049.521973)
(703420 4725515 1094.311035)
(703260 4726155 1093.598999)
(703420 4737035 1318.567017)
(703580 4725515 1136.301025)
(704060 4725355 1112.821045)
(704220 4725195 1143.569946)
(704220 4725355 1125.614014)
(704380 4725195 1179.895996)
(704540 4724875 1146.297974)
(704540 4725195 1210.353027)
(704700 4724875 1149.391968)
(704860 4724875 1159.737061)
(704860 4726795 1611.496948)
(705180 4725195 1301.840942)
(705340 4726955 1761.844971)
(705660 4726475 1659.875977)
(705820 4726475 1640.457031)
(705980 4727115 1847.921997)
(706300 4725675 1588.744995)
(706300 4725835 1624.593018)
(706620 4725355 1572.83606)
(706780 4726955 2053.394043)
(706940 4725195 1437.391968)
(706940 4726475 1808.947021)
(707100 4725675 1497.150024)
(707260 4726155 1518.723999)
(707420 4724235 1144.428955)
(707260 4724555 1182.428955)
(707580 4724075 1127.897949)
(707420 4726795 1755.972046)
(707420 4726955 1796.847046)
(707580 4726955 1695.375)
(707740 4723915 1107.94104)
(707740 4724875 1369.734009)
(707900 4724395 1201.02002)
(708060 4724235 1264.636963)
(708060 4726795 1823.364014)
(708220 4723915 1236.390015)
(708380 4723435 1187.654053)
(708380 4723915 1286.259033)
(708700 4723595 1145.463013)
(708700 4724555 1520.321045)
(709180 4723435 1225.380005)
(709180 4725035 1685.171997)
(709500 4723755 1369.694946)
(709660 4723755 1413.01001)
(709820 4723435 1317.069946)
(709980 4723435 1368.266968)
(709980 4723595 1423.761963)
(710620 4728075 1639.458008)
(710620 4728235 1690.01001)
(711100 4723435 1117.083008)
(711580 4722795 1122.932007)
(711420 4722955 1094.832031)
(712060 4723115 1368.754028)
(712220 4723595 1518.055054)
(712220 4738635 2159.431885)
(712380 4723595 1542.438965)
(712540 4722795 1382.860962)
(712540 4722955 1415.640015)
(712540 4738955 1912.633057)
(712700 4738635 2063.093994)
(713185 4721195 1063.411987)
(713345 4721195 1141.253052)
(713505 4721195 1138.437988)
(713500 4721675 1210.832031)
(713500 4721835 1287.338989)
(713660 4722315 1492.437988)
(713665 4721195 1116.073975)
(713825 4721195 1085.860962)
(713980 4723115 1631.5)
(714620 4721515 1167.792969)
(714620 4721675 1211.482056)
(717660 4727275 1669.822998)
(717660 4729995 1593.394043)
(717820 4730795 1523.988037)
(717980 4727275 1670.279053)
(717980 4729355 1522.031982)
(717820 4729515 1563.262939)
(717820 4729675 1531.635986)
(718140 4727275 1651.368042)
(718140 4730475 1476.149048)
(718460 4727115 1550.084961)
(718460 4727435 1706.437012)
(718620 4730315 1307.781006)
(718780 4730315 1306.387939)
(719100 4729995 1367.261963)
(719740 4730155 1209.909058)
(719740 4739435 1598.494995)
(719740 4739115 1723.979004)
(720380 4738635 2022.760986)
(720700 4739755 1811.47998)
(720700 4739595 1842.500977)
(720860 4739435 1936.03894)
(721020 4739595 1963.962036)
(721180 4739275 2051.181885)
(721340 4739915 2174.38501)
(721500 4739755 2297.251953)
(721820 4733995 1309.338989)
(722140 4733835 1247.619995)
(703420 4736875 1349.525024)
(706620 4726155 1776.82605)
(706620 4726315 1834.339966)
(706780 4725355 1580.07605)
(707580 4724395 1230.083984)
(707580 4724555 1270.026978)
(707900 4726795 1739.338013)
(709340 4724715 1604.103027)
(713500 4721355 1189.212036)
(713660 4721515 1245.953979)
(713660 4721675 1294.730957)
(718620 4729835 1343.378052)
(720220 4738795 2033.595947)
(721660 4733835 1285.640015)
(721660 4733995 1313.490967)
(703580 4725995 1109.285034)
(703420 4726155 1141.55896)
(706140 4726475 1616.741943)
(707740 4726475 1540.567993)
(707740 4726635 1596.656982)
(709020 4724555 1434.847046)
(709180 4724715 1537.956055)
(709180 4724875 1582.928955)
)


// edges:

799
(
(686 45)
(56 686)
(687 688)
(688 133)
(140 689)
(689 142)
(690 691)
(691 170)
(172 166)
(0 692)
(195 0)
(205 193)
(212 213)
(214 207)
(693 259)
(347 348)
(694 370)
(695 696)
(430 427)
(485 697)
(494 490)
(501 498)
(501 503)
(506 503)
(506 508)
(698 517)
(1 698)
(527 1)
(699 700)
(701 702)
(56 57)
(57 58)
(123 703)
(173 166)
(178 704)
(705 179)
(232 233)
(240 706)
(707 708)
(494 495)
(501 502)
(506 507)
(548 543)
(563 555)
(2 579)
(580 2)
(581 580)
(582 581)
(3 582)
(4 3)
(5 6)
(6 7)
(7 5)
(579 8)
(8 9)
(10 4)
(12 13)
(13 11)
(9 14)
(14 583)
(583 15)
(15 10)
(16 17)
(18 16)
(17 19)
(19 18)
(11 20)
(20 12)
(12 21)
(21 22)
(22 12)
(23 584)
(24 23)
(25 24)
(25 26)
(26 27)
(27 25)
(28 29)
(29 17)
(17 28)
(21 30)
(31 32)
(32 21)
(584 585)
(33 25)
(34 26)
(26 33)
(35 36)
(36 34)
(37 38)
(38 29)
(29 37)
(30 39)
(39 31)
(31 40)
(40 41)
(41 31)
(585 586)
(587 35)
(42 587)
(43 42)
(38 44)
(45 38)
(588 45)
(46 47)
(39 46)
(47 48)
(48 39)
(40 49)
(50 40)
(49 51)
(51 50)
(586 589)
(52 53)
(54 43)
(55 54)
(44 56)
(58 588)
(58 59)
(60 58)
(47 60)
(61 47)
(589 62)
(63 52)
(53 64)
(64 55)
(56 65)
(65 57)
(57 66)
(66 58)
(59 67)
(67 61)
(62 68)
(69 70)
(70 63)
(68 590)
(72 69)
(73 72)
(591 75)
(75 74)
(590 592)
(76 71)
(71 77)
(79 73)
(78 80)
(80 79)
(74 81)
(593 591)
(592 82)
(82 83)
(77 76)
(84 85)
(85 78)
(86 594)
(81 86)
(595 593)
(83 87)
(87 88)
(89 84)
(594 596)
(90 595)
(91 92)
(88 91)
(92 89)
(596 597)
(93 94)
(94 90)
(95 96)
(96 97)
(97 95)
(597 98)
(98 99)
(99 93)
(93 100)
(100 101)
(101 93)
(102 103)
(598 102)
(96 598)
(104 105)
(105 96)
(106 107)
(99 106)
(100 99)
(599 100)
(103 108)
(110 104)
(109 111)
(111 110)
(107 112)
(112 113)
(113 599)
(108 114)
(114 115)
(600 109)
(115 116)
(117 600)
(116 601)
(118 119)
(119 117)
(601 602)
(120 118)
(602 121)
(122 120)
(603 122)
(121 123)
(124 603)
(126 125)
(123 126)
(127 124)
(128 129)
(130 128)
(604 130)
(605 604)
(125 605)
(131 132)
(132 127)
(129 606)
(133 134)
(134 131)
(135 136)
(132 135)
(137 132)
(138 137)
(139 140)
(140 141)
(141 139)
(606 140)
(142 143)
(144 145)
(145 133)
(146 607)
(136 146)
(607 147)
(147 148)
(148 138)
(140 608)
(149 150)
(150 142)
(143 151)
(153 144)
(609 145)
(145 154)
(608 155)
(155 149)
(156 610)
(151 156)
(610 157)
(157 152)
(152 158)
(158 159)
(154 153)
(160 609)
(159 611)
(161 160)
(162 161)
(163 612)
(613 163)
(164 165)
(165 613)
(611 166)
(167 168)
(168 162)
(612 614)
(169 164)
(170 169)
(171 172)
(166 171)
(172 173)
(173 174)
(615 167)
(616 615)
(617 175)
(175 616)
(614 618)
(176 170)
(619 177)
(177 176)
(174 178)
(179 617)
(618 180)
(181 620)
(620 182)
(183 619)
(178 184)
(184 185)
(186 179)
(187 186)
(180 188)
(188 189)
(189 190)
(621 181)
(182 191)
(191 192)
(193 194)
(194 183)
(185 195)
(195 196)
(196 622)
(622 197)
(198 187)
(199 198)
(201 200)
(188 201)
(202 188)
(623 189)
(189 202)
(190 203)
(203 204)
(204 621)
(192 205)
(205 206)
(206 193)
(207 208)
(208 206)
(197 209)
(209 199)
(210 211)
(211 200)
(200 210)
(200 624)
(625 623)
(206 214)
(214 215)
(215 216)
(216 207)
(624 217)
(217 212)
(212 218)
(218 213)
(213 219)
(219 220)
(220 625)
(220 221)
(221 222)
(222 220)
(223 626)
(218 223)
(219 218)
(626 224)
(224 219)
(221 225)
(226 227)
(227 221)
(228 229)
(229 230)
(230 228)
(224 231)
(225 224)
(231 232)
(233 226)
(229 234)
(627 229)
(235 627)
(236 235)
(232 237)
(237 233)
(233 238)
(234 233)
(238 239)
(241 236)
(242 241)
(243 628)
(244 243)
(245 244)
(239 246)
(246 240)
(240 247)
(248 242)
(629 248)
(249 250)
(628 249)
(251 252)
(252 245)
(252 253)
(254 252)
(253 255)
(255 254)
(255 256)
(246 255)
(247 246)
(259 260)
(260 629)
(261 262)
(250 261)
(630 251)
(256 263)
(263 257)
(257 264)
(264 258)
(258 265)
(265 266)
(267 259)
(268 269)
(262 268)
(631 630)
(266 270)
(272 267)
(271 273)
(273 272)
(269 632)
(274 631)
(270 275)
(276 277)
(277 271)
(632 633)
(634 274)
(275 278)
(278 276)
(633 279)
(279 634)
(280 281)
(282 280)
(281 283)
(283 282)
(285 283)
(284 286)
(286 285)
(283 287)
(287 288)
(288 284)
(289 290)
(290 288)
(288 291)
(291 289)
(289 635)
(292 289)
(636 292)
(635 293)
(293 294)
(294 636)
(294 295)
(296 294)
(297 296)
(298 299)
(295 298)
(300 301)
(301 297)
(301 302)
(302 303)
(303 301)
(305 304)
(637 305)
(307 637)
(308 307)
(308 309)
(309 310)
(310 308)
(311 312)
(299 311)
(312 300)
(313 314)
(314 302)
(302 313)
(304 315)
(316 306)
(306 317)
(317 308)
(318 638)
(639 318)
(319 315)
(315 639)
(315 320)
(320 321)
(321 317)
(317 316)
(638 322)
(322 323)
(323 320)
(320 319)
(325 326)
(326 324)
(323 327)
(327 328)
(328 323)
(324 329)
(330 325)
(331 330)
(332 333)
(333 640)
(334 335)
(329 334)
(336 331)
(640 337)
(338 332)
(339 338)
(641 340)
(340 339)
(335 642)
(341 342)
(342 336)
(344 345)
(345 343)
(337 346)
(643 641)
(642 347)
(348 341)
(341 349)
(349 350)
(350 341)
(343 351)
(351 644)
(346 344)
(644 645)
(645 352)
(354 355)
(355 643)
(356 357)
(347 356)
(349 348)
(646 349)
(352 358)
(358 353)
(353 359)
(359 354)
(360 647)
(357 360)
(647 361)
(362 646)
(361 363)
(363 364)
(364 365)
(365 362)
(366 648)
(367 366)
(368 367)
(648 649)
(369 368)
(370 369)
(371 372)
(373 371)
(374 373)
(649 650)
(651 370)
(652 651)
(372 652)
(375 374)
(653 375)
(650 654)
(376 653)
(654 655)
(377 376)
(378 377)
(379 380)
(380 378)
(655 381)
(381 382)
(384 379)
(383 385)
(385 384)
(386 385)
(656 386)
(387 656)
(388 387)
(382 389)
(389 390)
(391 392)
(392 383)
(392 393)
(385 392)
(394 388)
(395 394)
(390 396)
(398 399)
(399 391)
(393 400)
(400 401)
(402 395)
(403 657)
(396 403)
(657 658)
(658 404)
(404 397)
(397 405)
(405 398)
(399 406)
(406 407)
(407 399)
(407 408)
(408 409)
(409 407)
(401 410)
(410 411)
(412 402)
(411 413)
(413 412)
(414 415)
(415 413)
(413 414)
(417 418)
(418 416)
(419 420)
(421 419)
(420 422)
(422 421)
(423 424)
(416 423)
(424 659)
(659 425)
(425 419)
(419 417)
(420 426)
(427 428)
(428 420)
(425 429)
(426 425)
(430 431)
(431 427)
(432 433)
(660 432)
(434 435)
(435 660)
(435 436)
(437 435)
(436 438)
(438 437)
(439 440)
(441 439)
(661 441)
(429 662)
(442 430)
(443 663)
(444 443)
(664 444)
(663 445)
(665 664)
(433 665)
(436 434)
(446 436)
(446 447)
(438 446)
(447 448)
(448 438)
(448 449)
(449 440)
(440 448)
(440 450)
(450 451)
(451 661)
(662 666)
(452 442)
(445 453)
(454 455)
(455 446)
(456 667)
(449 456)
(450 449)
(667 457)
(457 450)
(666 458)
(459 452)
(460 461)
(453 460)
(462 454)
(463 668)
(458 463)
(669 459)
(464 465)
(461 464)
(465 466)
(468 462)
(469 470)
(471 469)
(472 471)
(668 473)
(474 669)
(466 475)
(475 476)
(476 467)
(467 477)
(477 468)
(470 478)
(480 472)
(481 480)
(473 482)
(482 474)
(476 483)
(483 477)
(477 476)
(478 484)
(485 479)
(479 486)
(486 487)
(670 481)
(671 488)
(488 670)
(484 489)
(490 485)
(487 491)
(491 671)
(489 492)
(492 493)
(495 490)
(672 495)
(496 497)
(493 496)
(498 672)
(499 500)
(497 499)
(502 498)
(503 502)
(500 504)
(504 505)
(507 503)
(508 507)
(505 509)
(509 510)
(673 508)
(674 512)
(512 511)
(510 513)
(513 673)
(514 515)
(675 514)
(511 675)
(516 674)
(515 517)
(518 516)
(517 519)
(520 518)
(520 521)
(521 522)
(522 520)
(519 676)
(524 520)
(521 525)
(525 526)
(526 521)
(676 527)
(528 523)
(523 529)
(529 530)
(530 524)
(527 531)
(531 528)
(528 532)
(532 529)
(529 528)
(677 533)
(533 678)
(531 534)
(534 532)
(532 531)
(678 679)
(535 677)
(536 537)
(537 538)
(538 536)
(679 539)
(680 535)
(537 540)
(541 537)
(540 542)
(542 541)
(539 681)
(543 680)
(542 544)
(545 546)
(546 542)
(681 547)
(547 548)
(549 543)
(550 549)
(551 552)
(552 550)
(682 553)
(553 551)
(554 555)
(544 554)
(556 545)
(557 556)
(558 559)
(548 558)
(560 551)
(551 683)
(561 682)
(562 563)
(555 562)
(566 557)
(567 566)
(559 568)
(568 569)
(569 560)
(683 570)
(570 561)
(563 571)
(571 572)
(684 564)
(564 573)
(573 565)
(565 574)
(574 567)
(572 575)
(575 684)
(575 685)
(576 575)
(577 576)
(685 578)
(578 577)
)

// * * * * * * * * * * * * * * * * * * * * * * * * * * * * * * * * * * * * * //


// ************************************************************************* //
