/*--------------------------------*- C++ -*----------------------------------*\
  =========                 |
  \\      /  F ield         | OpenFOAM: The Open Source CFD Toolbox
   \\    /   O peration     | Website:  https://openfoam.org
    \\  /    A nd           | Version:  6
     \\/     M anipulation  |
\*---------------------------------------------------------------------------*/
FoamFile
{
    version     2.0;
    format      ascii;
    class       featureEdgeMesh;
    location    "constant/triSurface";
    object      Mosaico_de_cultivos.eMesh;
}
// * * * * * * * * * * * * * * * * * * * * * * * * * * * * * * * * * * * * * //


// points:

28
(
(703420 4729515 1274.762939)
(703420 4729675 1291.843994)
(703260 4729675 1249.087036)
(703580 4728715 1171.932983)
(703580 4728875 1190.560059)
(703420 4728875 1214.765015)
(703420 4729355 1264.848022)
(703580 4729355 1277.801025)
(703580 4729515 1300.389038)
(703740 4728875 1193.958008)
(703900 4728555 1162.791016)
(703900 4728715 1198.161011)
(703740 4729035 1215.725952)
(704220 4728395 1214.988037)
(704220 4728555 1215.574951)
(704380 4728395 1224.297974)
(704380 4728555 1223.764038)
(704540 4728395 1239.004028)
(704540 4728555 1232.760986)
(704380 4728715 1252.105957)
(704700 4728395 1250.224976)
(704700 4728555 1249.828003)
(704860 4728395 1270.630981)
(704860 4728555 1268.369995)
(703740 4728715 1189.380005)
(703900 4728875 1213.375)
(704060 4728555 1193.994019)
(704060 4728715 1217.869019)
)


// edges:

33
(
(0 1)
(1 2)
(2 0)
(3 4)
(4 5)
(5 3)
(6 7)
(0 6)
(7 8)
(8 0)
(9 4)
(4 24)
(10 11)
(24 10)
(25 12)
(12 9)
(11 26)
(27 25)
(26 13)
(14 27)
(13 15)
(15 16)
(16 14)
(17 18)
(16 17)
(18 19)
(19 16)
(20 21)
(21 18)
(18 20)
(22 23)
(23 21)
(21 22)
)

// * * * * * * * * * * * * * * * * * * * * * * * * * * * * * * * * * * * * * //


// ************************************************************************* //
