/*--------------------------------*- C++ -*----------------------------------*\
  =========                 |
  \\      /  F ield         | OpenFOAM: The Open Source CFD Toolbox
   \\    /   O peration     | Website:  https://openfoam.org
    \\  /    A nd           | Version:  6
     \\/     M anipulation  |
\*---------------------------------------------------------------------------*/
FoamFile
{
    version     2.0;
    format      ascii;
    class       featureEdgeMesh;
    location    "constant/triSurface";
    object      Pastizales_naturales.eMesh;
}
// * * * * * * * * * * * * * * * * * * * * * * * * * * * * * * * * * * * * * //


// points:

3428
(
(703420 4739275 1628.420044)
(703900 4740715 2225.176025)
(704060 4740875 2271.681885)
(705020 4738475 1949.813965)
(705500 4738155 1985.177002)
(705820 4738315 2165.187988)
(705820 4739275 2163.39209)
(706140 4737835 2103.371094)
(706140 4738315 2265.360107)
(706140 4739115 2242.362061)
(706300 4738155 2272.748047)
(706620 4738315 2389.628906)
(707100 4727595 2128.87207)
(707260 4727755 2115.831055)
(707580 4740555 2149.635986)
(708220 4729035 2143.569092)
(708700 4726635 2089.084961)
(708700 4726955 2104.759033)
(709180 4730155 2516.340088)
(709500 4731915 2506.437988)
(709820 4731115 2374.947998)
(709820 4731275 2341.995117)
(710140 4732555 2320.261963)
(710940 4733195 2137.204102)
(711740 4733355 2130.233887)
(712060 4725835 1918.209961)
(712060 4725995 1908.718994)
(712380 4733675 2162.102051)
(712700 4733835 2095.516113)
(712860 4733995 2117.672119)
(712860 4734475 1921.160034)
(713020 4734155 2017.39502)
(713340 4726475 2132.684082)
(713820 4724235 1784.38501)
(713820 4724395 1795.130981)
(714140 4723915 1737.61499)
(715580 4725835 2109.683105)
(716060 4725835 2024.993042)
(716220 4725675 2017.682983)
(717660 4736715 1905)
(721820 4739595 2366.550049)
(721980 4736395 2158.787109)
(722140 4736395 2188.772949)
(704860 4739915 1492.384033)
(704860 4740075 1479.531982)
(705020 4740075 1506.39502)
(709820 4733035 2429.455078)
(711100 4732715 1961.291016)
(712380 4733835 1947.025024)
(712860 4734155 1944.75)
(716860 4736075 1570.110962)
(720860 4740395 1792.305054)
(721020 4740395 1797.776978)
(721180 4738315 2145.785889)
(721660 4740875 1897.869019)
(702620 4728075 978.6199951)
(702620 4728235 967.1149902)
(702460 4728235 959.8200073)
(702460 4728715 1021.664978)
(702620 4728715 1039.482056)
(702460 4737675 1660.718018)
(702620 4737675 1747.545044)
(702620 4737835 1588.552002)
(702620 4737995 1492.355957)
(702460 4738155 1431.91394)
(702620 4738315 1466.150024)
(702460 4738475 1565.504028)
(702620 4739595 1504.862061)
(702620 4739755 1472.588989)
(702460 4739755 1529.800049)
(702460 4739915 1483.025024)
(702620 4739915 1495.5)
(702460 4740075 1496.760986)
(702460 4741035 1604.206055)
(702620 4741035 1556.939941)
(702780 4728235 1017.953979)
(702780 4728395 988.6989746)
(702780 4728715 1068.238037)
(702620 4728875 1039.327026)
(702780 4737835 1705.526001)
(702780 4737995 1564.459961)
(702780 4738155 1432.505981)
(702780 4738315 1416.911987)
(702620 4738475 1480.998047)
(702780 4738475 1426.119995)
(702940 4728395 1054.112061)
(702940 4728555 1018.208984)
(702940 4738155 1547.85498)
(702940 4738315 1442.771973)
(702940 4738475 1406.920044)
(702780 4738635 1465.137939)
(702780 4739115 1573.327026)
(702940 4739115 1481.453979)
(702780 4739275 1548.107056)
(702940 4739275 1491.473999)
(702940 4739435 1450.187988)
(702780 4739435 1476.848999)
(702940 4739595 1491.177002)
(703100 4728555 1040.979004)
(703100 4728715 1091.39502)
(703100 4738475 1426.859985)
(703100 4738635 1400.06604)
(703100 4738795 1411.63501)
(702940 4738795 1464.348022)
(702940 4738955 1488.154053)
(703100 4738955 1430.494995)
(703100 4739275 1433.69104)
(703100 4739435 1472.155029)
(703100 4739595 1531.847046)
(703260 4738635 1434.10498)
(703260 4738795 1394.579956)
(703260 4739435 1574.843994)
(703420 4728395 1183.290039)
(703420 4728555 1135.253052)
(703260 4728555 1098.563965)
(703420 4738635 1490.45105)
(703420 4738795 1412.323975)
(703420 4739115 1429.659058)
(703260 4739275 1504.067993)
(703420 4739435 1640.485962)
(703420 4739595 1686.07605)
(703580 4739115 1425.947021)
(703580 4739275 1523.853027)
(703580 4739435 1620.376953)
(703580 4739595 1724.529053)
(703580 4739915 1827.380005)
(703740 4739915 1872.302979)
(703740 4740075 1919.97998)
(703900 4740075 1922.639038)
(703900 4740235 2001.884033)
(703900 4740555 2125.437988)
(703900 4740875 2233.516113)
(704060 4737995 1383.009033)
(704060 4738155 1414.253052)
(703900 4738155 1388.10498)
(703900 4738315 1320.083008)
(704060 4740075 1816.171997)
(704060 4740235 1874.319946)
(704060 4740715 2149.478027)
(704060 4741035 2253.695068)
(704220 4730955 1827.838989)
(704220 4731115 1851.515991)
(704060 4731115 1834.402954)
(704060 4731435 1814.612061)
(704060 4731595 1788.287964)
(704220 4731595 1816.858032)
(704220 4731755 1817.115967)
(704220 4731915 1842.339966)
(704060 4731915 1787.026978)
(704060 4732075 1823.311035)
(704220 4738155 1473.017944)
(704220 4738315 1460.254028)
(704220 4740075 1714.843994)
(704220 4740235 1749.379028)
(704220 4740395 1871.505005)
(704220 4731275 1875.151001)
(704380 4731275 1896.817017)
(704380 4731435 1861.01001)
(704380 4731595 1835.161987)
(704380 4731755 1860.082031)
(704380 4731915 1911.555054)
(704220 4732075 1886.744019)
(704380 4732075 1963.206055)
(704380 4732395 2090.706055)
(704220 4732555 1991.182983)
(704220 4732715 1986.597046)
(704380 4732715 2130.800049)
(704380 4738155 1550.333984)
(704380 4738315 1543.964966)
(704220 4738795 1380.317017)
(704380 4740075 1598.713989)
(704380 4740235 1713.859009)
(704380 4740555 1975.484985)
(704380 4730635 1763.796997)
(704540 4730635 1816.77002)
(704380 4730795 1830.000977)
(704540 4730795 1868.182007)
(704540 4730955 1886.781006)
(704540 4731435 1873.037964)
(704540 4731755 1912.587036)
(704540 4732075 2036.859985)
(704540 4732235 2085.564941)
(704380 4732235 2015.478027)
(704540 4732395 2146.62207)
(704540 4738795 1501.657959)
(704540 4739755 1465.144043)
(704540 4739915 1498.515015)
(704380 4739915 1537.261963)
(704540 4740395 1755.162964)
(704540 4740555 1861.553955)
(704540 4740715 1893.333984)
(704700 4729835 1674.968994)
(704700 4729995 1704.583008)
(704540 4729995 1632.380005)
(704540 4730155 1740.555054)
(704700 4730155 1724.265991)
(704540 4730315 1734.895996)
(704700 4730315 1741.386963)
(704540 4730475 1744.373047)
(704700 4730475 1779.819946)
(704700 4730635 1875.921021)
(704700 4731275 1930.588013)
(704700 4732075 2101.509033)
(704700 4732235 2168.118896)
(704700 4738635 1653.737061)
(704700 4738795 1592.881958)
(704540 4738955 1515.219971)
(704700 4739275 1640.467041)
(704540 4739435 1502.842041)
(704700 4739755 1490.141968)
(704700 4739915 1477.353027)
(704540 4740075 1560.541016)
(704700 4740075 1512.592041)
(704540 4740235 1630.333984)
(704700 4740875 1938.064941)
(704860 4729995 1720.435059)
(704860 4730155 1726.311035)
(704860 4730315 1758.020996)
(704860 4730475 1781.618042)
(704860 4731755 2045.166992)
(704860 4732075 2151.406006)
(704860 4738315 1803.855957)
(704860 4738475 1832.802002)
(704860 4740235 1532.680054)
(704700 4740395 1663.531006)
(704860 4740715 1817.177979)
(704860 4740875 1939.97998)
(705020 4730475 1814.904053)
(705020 4730635 1923.199951)
(705020 4731595 2034.515991)
(705020 4732075 2250.478027)
(705020 4737995 1694.008057)
(704860 4738155 1720.447998)
(705020 4740395 1541.337036)
(705020 4740875 1838.109985)
(705020 4741035 1963.630005)
(705180 4731275 2023.021973)
(705180 4731435 2047.649048)
(705180 4731595 2083.547119)
(705180 4731915 2219.160889)
(705180 4737995 1681.834961)
(705180 4738475 1931.447021)
(705180 4740235 1539.697021)
(705180 4740395 1512.81897)
(705180 4740875 1813.119019)
(705180 4741035 1937.890015)
(705340 4730635 1966.005005)
(705340 4732715 2349.11499)
(705180 4733515 1746.338989)
(705180 4733675 1588.793945)
(705340 4733675 1629.838013)
(705180 4733835 1637.957031)
(705340 4734315 2135.179932)
(705340 4734475 2208.904053)
(705180 4734475 2126.635986)
(705180 4737675 1516.636963)
(705340 4737675 1697.824951)
(705180 4737835 1603.010986)
(705340 4737835 1674.203003)
(705340 4740395 1535.983032)
(705500 4730475 1940.203003)
(705500 4730635 1997.11499)
(705500 4732715 2477.822998)
(705500 4733675 1659.854004)
(705340 4733835 1651.435059)
(705500 4733835 1756.161987)
(705340 4734155 1935.864014)
(705500 4734155 1937.817017)
(705500 4734315 2029.458008)
(705500 4737515 1661.250977)
(705500 4737675 1709.409058)
(705500 4740395 1567.208008)
(705340 4740555 1559.337036)
(705660 4730155 1789.264038)
(705660 4730315 1871.506958)
(705500 4730315 1832.682007)
(705660 4730475 2004.545044)
(705660 4730635 2030.30603)
(705660 4733515 1803.948975)
(705660 4733675 1758.509033)
(705660 4733835 1859.135986)
(705660 4734155 2005.578003)
(705660 4734315 2066.663086)
(705500 4734475 2182.11499)
(705500 4737035 1606.823975)
(705660 4737035 1578.510986)
(705500 4737195 1551.265991)
(705660 4737195 1523.535034)
(705820 4730155 1785.261963)
(705820 4730315 1913.064941)
(705820 4730475 2014.958984)
(705820 4731435 2253.74292)
(705820 4731915 2408.779053)
(705820 4732075 2427.699951)
(705820 4732715 2571.842041)
(705820 4733355 1917.797974)
(705820 4733515 1850.537964)
(705820 4733675 1834.723999)
(705820 4734315 2231.893066)
(705660 4734475 2181.803955)
(705660 4736875 1634.000977)
(705820 4737195 1528.493042)
(705660 4737355 1613.312012)
(705820 4740555 1547.20105)
(705820 4740875 1720.161987)
(705820 4741035 1859.729004)
(705660 4741035 1879.209961)
(705820 4729835 1656.207031)
(705980 4729835 1701.378052)
(705980 4730315 1876.609985)
(705980 4730475 1940.22998)
(705820 4731595 2327.803955)
(705980 4731595 2372.782959)
(705980 4731755 2434.698975)
(705820 4731755 2379.403076)
(705980 4731915 2460.900879)
(705980 4732555 2542.86792)
(705980 4732715 2488.748047)
(705980 4734315 2217.663086)
(705980 4734475 2359.785889)
(705820 4734475 2240.116943)
(705820 4737355 1701.39502)
(705980 4737355 1651.619019)
(705980 4737515 1811.912964)
(705980 4739115 2169.121094)
(705980 4740555 1569.699951)
(705820 4740715 1603.869995)
(705980 4740875 1725.196045)
(705980 4741035 1830.004028)
(706140 4730155 1834.791016)
(706140 4730315 1959.634033)
(706140 4731915 2456.572998)
(706140 4732555 2601.451904)
(706140 4733355 1935.093994)
(706140 4734155 2140.916992)
(706140 4734315 2257.159912)
(706140 4736875 1601.397949)
(705980 4740715 1604.147949)
(706140 4740715 1581.305054)
(706300 4730155 1898.980957)
(706300 4730315 2005.786011)
(706300 4731915 2454.516113)
(706300 4732075 2477.646973)
(706300 4732555 2673.029053)
(706300 4733195 2032.896973)
(706300 4733355 1977.781982)
(706300 4733995 2073.211914)
(706300 4734155 2193.458008)
(706300 4734315 2352.092041)
(706140 4734475 2431.397949)
(706300 4736715 1728.822021)
(706300 4739115 2236.88501)
(706300 4739275 2143.540039)
(706300 4739915 1837.113037)
(706300 4740715 1662.348999)
(706300 4740875 1629.72998)
(706140 4740875 1660.985962)
(706300 4741035 1641.744995)
(706140 4741035 1720.499023)
(706460 4727115 1926.041016)
(706460 4727275 1980.55896)
(706300 4727275 1969.892944)
(706460 4728555 1868.786987)
(706300 4728555 1813.043945)
(706300 4729995 1941.487061)
(706460 4729995 1995.329956)
(706460 4730155 2039.078979)
(706460 4730315 2035.636963)
(706460 4730635 2136.711914)
(706460 4731275 2359.226074)
(706460 4731435 2444.968018)
(706460 4731595 2448.74707)
(706460 4732395 2678.712891)
(706460 4732555 2566.721924)
(706460 4733195 2041.234985)
(706460 4733355 1980.30603)
(706460 4736715 1669.156006)
(706460 4738795 2313.103027)
(706460 4738955 2309.875977)
(706460 4739115 2221.552002)
(706620 4727115 1978.177002)
(706620 4727275 1982.921997)
(706460 4727435 1975.526978)
(706620 4727435 2001.31897)
(706620 4728235 1835.795044)
(706620 4728395 1894.590942)
(706620 4729995 2021.837036)
(706620 4730315 2107.227051)
(706620 4730635 2165.149902)
(706620 4730795 2203.056885)
(706620 4731275 2399.35791)
(706620 4731595 2486.450928)
(706460 4731755 2465.260986)
(706620 4732235 2596.49707)
(706620 4732395 2587.162109)
(706620 4733355 1994.822998)
(706460 4736235 1840.864014)
(706620 4736235 1873.130981)
(706620 4738475 2353.699951)
(706620 4738635 2384.467041)
(706780 4727115 2064.094971)
(706780 4727275 2058.024902)
(706620 4727595 1954.890991)
(706780 4727595 2028.014038)
(706780 4728395 1945.868042)
(706620 4728555 1886.17395)
(706780 4729835 1993.92395)
(706780 4729995 2049.64502)
(706620 4730475 2113.413086)
(706780 4730795 2212.124023)
(706780 4730955 2231.61499)
(706780 4731115 2306.936035)
(706780 4731275 2425.327881)
(706620 4731755 2524.853027)
(706780 4731755 2569.939941)
(706780 4732075 2631.157959)
(706780 4732235 2694.13208)
(706780 4733195 2057.528076)
(706780 4733355 2009.094971)
(706780 4734315 2380.843994)
(706780 4734475 2504.961914)
(706620 4734475 2452.965088)
(706780 4736075 1997.54895)
(706780 4738475 2378.580078)
(706780 4739595 2114.675049)
(706780 4739755 2100.628906)
(706780 4739915 1958.418945)
(706780 4726955 2053.394043)
(706940 4726955 1979.015991)
(706940 4727115 2028.157959)
(706940 4727275 2108.687988)
(706940 4727595 2085.770996)
(706780 4727755 1951.993042)
(706940 4727755 2015.771973)
(706940 4728235 1976.295044)
(706940 4728395 1999.958984)
(706780 4728555 1867.881958)
(706940 4729835 1952.765991)
(706940 4729995 2081.165039)
(706940 4730475 2239.650879)
(706940 4731275 2426.922119)
(706940 4731435 2533.077881)
(706940 4731595 2572.686035)
(706940 4731915 2681.384033)
(706940 4733195 2058.291992)
(706940 4733355 2038.458984)
(706940 4734315 2432.01709)
(706940 4736075 1900.531006)
(706780 4738635 2439.677002)
(706940 4738635 2349.066895)
(706940 4739595 2198.294922)
(706940 4739755 2116.124023)
(707100 4727115 1987.290039)
(707100 4727275 2014.786987)
(707100 4727755 2084.312988)
(707100 4727915 2032.969971)
(706940 4728075 1916.180054)
(707100 4728075 2008.782959)
(706940 4728555 1923.275024)
(707100 4728715 1790.359009)
(707100 4728875 1751.651001)
(706940 4728875 1716.099976)
(706940 4729035 1698.473999)
(707100 4729035 1759.891968)
(707100 4729995 2108.284912)
(707100 4730315 2207.926025)
(706940 4730635 2217.717041)
(707100 4730635 2263.643066)
(707100 4730955 2266.702881)
(707100 4731435 2440.913086)
(707100 4731755 2585.524902)
(707100 4731915 2677.297119)
(706940 4732075 2722.219971)
(707100 4733195 2087.922119)
(707100 4733355 2068.268066)
(707100 4734315 2480.602051)
(707100 4735755 1946.472046)
(707100 4735915 1886.167969)
(706940 4735915 2025.975952)
(706940 4738795 2432.966064)
(707100 4739275 2215.135986)
(707100 4739755 2232.00293)
(707100 4739915 2149.596924)
(707260 4726955 1853.604004)
(707100 4726955 1884.604004)
(707260 4727115 1893.666992)
(707260 4727595 2078.518066)
(707260 4728075 2113.958008)
(707260 4728555 1946.482056)
(707260 4728715 1868.282959)
(707100 4729195 1761.668945)
(707260 4729195 1804.322021)
(707260 4730315 2229.14502)
(707260 4730635 2316.802979)
(707100 4730795 2274.268066)
(707260 4733195 2094.175049)
(707260 4733355 2078.153076)
(707260 4734155 2292.065918)
(707260 4734315 2366.483887)
(707260 4735595 1996.98999)
(707260 4735755 1894.730957)
(707260 4739115 2286.988037)
(707260 4739275 2232.174072)
(707260 4740075 2142.454102)
(707260 4740235 2092.764893)
(707420 4726635 1687.137939)
(707420 4727115 1796.167969)
(707420 4727435 1993.96106)
(707420 4729195 1769.891968)
(707260 4729355 1755.265991)
(707420 4730315 2161.447998)
(707420 4730475 2206.696045)
(707420 4730635 2330.824951)
(707260 4730795 2306.360107)
(707420 4730795 2360.103027)
(707420 4733195 2109.281006)
(707420 4733355 2084.496094)
(707420 4735595 2009.536987)
(707420 4735755 1919.608032)
(707420 4735915 1889.833984)
(707420 4738795 2449.680908)
(707420 4739275 2298.587891)
(707260 4739435 2258.414062)
(707420 4739435 2298.856934)
(707420 4739915 2217.022949)
(707420 4740235 2135.725098)
(707420 4740395 2092.329102)
(707580 4727595 1937.967041)
(707580 4727755 1976.015991)
(707580 4730795 2302.23291)
(707420 4730955 2349.312012)
(707580 4730955 2380.366943)
(707580 4734155 2249.089111)
(707580 4734315 2350.524902)
(707420 4734315 2340.683105)
(707420 4734475 2444.394043)
(707580 4735755 1967.965942)
(707580 4738795 2438.075928)
(707580 4740235 2194.251953)
(707580 4740395 2143.493896)
(707740 4727435 1883.333984)
(707740 4727755 2023.791992)
(707740 4728875 2031.373047)
(707740 4730795 2248.349121)
(707740 4730955 2401.926025)
(707740 4731275 2437.425049)
(707740 4731435 2476.938965)
(707580 4731595 2489.195068)
(707740 4733035 2100.611084)
(707740 4733195 2103.297119)
(707580 4734475 2399.940918)
(707740 4735915 2019.381958)
(707740 4737995 2125.262939)
(707580 4738955 2496.281982)
(707740 4738955 2552.754883)
(707740 4740075 2122.077881)
(707740 4740235 2070.704102)
(707740 4726955 1656.232056)
(707900 4726955 1753.980957)
(707740 4727275 1800.713989)
(707900 4727275 1877.713989)
(707740 4727595 1931.595947)
(707900 4727595 1983.810059)
(707900 4727755 2063.649902)
(707900 4729355 1976.467041)
(707900 4729675 2022.892944)
(707900 4729835 2066.958008)
(707740 4729835 2016.869995)
(707900 4730795 2272.145996)
(707900 4731115 2525.565918)
(707900 4733195 2136.845947)
(707900 4734475 2416.628906)
(707900 4735755 2130.549072)
(707900 4736075 2079.75293)
(707900 4738795 2449.270996)
(707900 4738955 2439.091064)
(708060 4727275 1940.993042)
(708060 4729195 1974.814941)
(708060 4729675 2085.833984)
(707900 4730155 2100.529053)
(708060 4730155 2142.258057)
(708060 4730795 2301.139893)
(708060 4730955 2427.990967)
(708060 4733035 2100.679932)
(708060 4734475 2402.568115)
(707900 4734635 2572.218994)
(708060 4736075 2097.23999)
(708060 4738155 2323.680908)
(708060 4738475 2405.516113)
(708060 4738795 2470.939941)
(708060 4726155 1700.848022)
(708060 4726315 1719.01001)
(708220 4726315 1823.347046)
(708060 4726795 1823.364014)
(708220 4726795 1850.078979)
(708060 4726955 1864.957031)
(708220 4726955 1949.129028)
(708060 4727115 1853.546021)
(708220 4728555 1931.045044)
(708220 4728715 2015.563965)
(708220 4729195 2016.323975)
(708060 4729355 2008.151001)
(708220 4729675 2078.24707)
(708220 4729835 2150.138916)
(708060 4730315 2157.829102)
(708220 4730315 2199.362061)
(708220 4730955 2437.875977)
(708220 4731115 2474.753906)
(708220 4734155 2294.455078)
(708220 4734475 2424.189941)
(708060 4734635 2539.185059)
(708220 4734635 2562.197021)
(708060 4735915 2180.415039)
(708220 4735915 2078.349121)
(708220 4736235 1980.519043)
(708220 4738315 2456.580078)
(708220 4740235 2065.542969)
(708220 4740395 2027.19397)
(708220 4725675 1706.85498)
(708220 4725835 1728.196045)
(708380 4725835 1755.547974)
(708380 4728395 1914.432007)
(708380 4728715 2028.185059)
(708380 4729035 2049.251953)
(708220 4729355 2029.56604)
(708380 4729355 2081.403076)
(708380 4729835 2150.540039)
(708380 4730155 2198.806885)
(708380 4730315 2306.73291)
(708220 4730475 2226.038086)
(708380 4731115 2449.774902)
(708220 4731275 2591.082031)
(708380 4731275 2493.663086)
(708380 4733035 2100.690918)
(708380 4733195 2138.374023)
(708380 4733835 2237.163086)
(708380 4733995 2317.961914)
(708380 4734155 2351.729004)
(708380 4734315 2374.946045)
(708380 4736075 2030.474976)
(708380 4738315 2458.162109)
(708220 4738475 2500.331055)
(708380 4740235 1999.359009)
(708380 4740395 1922.975952)
(708540 4725675 1686.44104)
(708540 4726155 1885.293945)
(708540 4728395 1882.983032)
(708540 4728555 1949.723999)
(708540 4728715 2050.456055)
(708380 4729515 2090.006104)
(708540 4729515 2163.228027)
(708540 4730315 2273.724121)
(708380 4730475 2290.602051)
(708540 4731275 2554.746094)
(708380 4731435 2541.968994)
(708540 4733195 2105.301025)
(708540 4734315 2372.886963)
(708540 4734475 2485.313965)
(708380 4735755 2065.496094)
(708540 4735755 2030.237061)
(708540 4735915 2021.593994)
(708540 4738315 2474.450928)
(708540 4738955 2285.149902)
(708540 4739115 2263.25708)
(708380 4739115 2310.760986)
(708540 4739275 2284.014893)
(708380 4739275 2298.719971)
(708540 4740395 1866.758057)
(708700 4726155 1866.57605)
(708700 4726315 1940.772949)
(708700 4727595 1898.265015)
(708700 4727755 1847.103027)
(708700 4728235 1809.225952)
(708700 4728395 1886.932983)
(708700 4728555 1966.421021)
(708700 4728715 1976.083008)
(708540 4729675 2144.956055)
(708700 4729675 2240.029053)
(708700 4730155 2208.293945)
(708700 4730315 2296.685059)
(708540 4730475 2351.922119)
(708700 4731115 2528.656006)
(708540 4731435 2569.89209)
(708540 4732875 2127.541016)
(708540 4733035 2100.708984)
(708700 4733035 2136.676025)
(708700 4735755 2049.824951)
(708700 4738155 2401.068115)
(708700 4739115 2253.695068)
(708540 4739435 2260.621094)
(708700 4740235 1895.339966)
(708860 4727595 1805.95105)
(708860 4727755 1791.248047)
(708860 4727915 1729.720947)
(708860 4728075 1783.244019)
(708860 4728235 1847.222046)
(708860 4728395 1906.314941)
(708860 4728555 1991.401978)
(708700 4729995 2211.504883)
(708860 4729995 2318.261963)
(708860 4730315 2326.112061)
(708860 4731115 2623.905029)
(708860 4731435 2641.440918)
(708860 4732875 2225.623047)
(708860 4733035 2194.63501)
(708860 4733355 2257.86499)
(708700 4735435 2097.466064)
(708860 4735435 2136.145996)
(708700 4738315 2377.133057)
(708860 4738955 2263.724121)
(708860 4739435 2248.268066)
(708860 4739915 2000.937988)
(708700 4740075 1937.738037)
(709020 4726315 1993.024048)
(709020 4727435 1814.43103)
(709020 4727915 1753.552002)
(709020 4728075 1858.177979)
(709020 4728395 1939.313965)
(709020 4728555 1890.536011)
(709020 4728715 1811.480957)
(709020 4728875 1826.192017)
(709020 4729035 1889.672974)
(709020 4729195 2019.234009)
(709020 4729355 2132.102051)
(709020 4730315 2402.86499)
(708860 4730475 2367.780029)
(709020 4730955 2518.085938)
(709020 4731115 2609.275879)
(709020 4731275 2616.792969)
(709020 4733035 2273.25293)
(709020 4733355 2339.285889)
(709020 4735275 2150.798096)
(709020 4737995 2437.246094)
(709020 4738635 2247.555908)
(708860 4738795 2264.927979)
(708860 4739595 2207.572021)
(709020 4741035 2139.523926)
(709020 4726155 1921.572021)
(709180 4726635 1871.862061)
(709180 4726795 1825.859009)
(709020 4727595 1771.222046)
(709180 4727595 1712.374023)
(709180 4728235 1951.541016)
(709180 4728715 1738.026978)
(709180 4728875 1827.978027)
(709180 4729035 1952.094971)
(709180 4729195 1993.973022)
(709180 4729355 2076.812988)
(709180 4730315 2503.045898)
(709180 4730955 2566.12793)
(709180 4731275 2474.547119)
(709020 4731755 2571.98291)
(709180 4735275 2145.176025)
(709180 4738635 2241.985107)
(709180 4738795 2234.111084)
(709180 4738955 2229.60791)
(709180 4739115 2238.185059)
(709180 4740715 2112.839111)
(709180 4741035 2135.736084)
(709180 4725035 1685.171997)
(709340 4725035 1721.781006)
(709180 4725195 1731.276978)
(709340 4725195 1772.427979)
(709340 4725355 1808.151978)
(709180 4725355 1715.666992)
(709340 4725675 1856.348999)
(709340 4725835 1864.444946)
(709180 4725835 1829.637939)
(709340 4726155 1843.266968)
(709340 4726315 1815.147949)
(709340 4726475 1834.171021)
(709340 4726635 1792.828003)
(709340 4726955 1805.834961)
(709340 4727115 1809.22998)
(709340 4727595 1691.612061)
(709180 4727755 1691.384033)
(709340 4727755 1673.637939)
(709340 4728235 1846.026001)
(709340 4728395 1824.343994)
(709340 4728715 1726.68103)
(709340 4729355 2135.448975)
(709340 4729515 2223.754883)
(709340 4730155 2502.550049)
(709340 4730315 2557.177979)
(709340 4730955 2652.749023)
(709340 4731115 2518.336914)
(709340 4731435 2340.077881)
(709340 4731595 2372.650879)
(709340 4731755 2436.36792)
(709340 4731915 2530.793945)
(709180 4731915 2631.762939)
(709180 4735115 2197.729004)
(709340 4738795 2242.638916)
(709340 4738955 2230.840088)
(709340 4739115 2232.14502)
(709340 4739915 2241.062988)
(709340 4740235 2148.775879)
(709340 4740395 2146.381104)
(709340 4740555 2162.103027)
(709340 4724875 1668.327026)
(709500 4724875 1652.995972)
(709500 4725035 1713.993042)
(709340 4725515 1832.969971)
(709500 4725515 1775.912964)
(709500 4726155 1751.677979)
(709500 4726795 1697.873047)
(709500 4726955 1750.665039)
(709500 4727115 1711.862061)
(709500 4727275 1704.625)
(709500 4727435 1692.837036)
(709500 4727595 1638.162964)
(709500 4728555 1700.83606)
(709500 4728715 1725.531006)
(709500 4729515 2198.905029)
(709500 4730155 2433.584961)
(709500 4730795 2597.481934)
(709500 4730955 2642.406006)
(709500 4731115 2519.466064)
(709500 4731435 2309.116943)
(709500 4731595 2356.693115)
(709340 4732075 2607.568115)
(709500 4732075 2615.945068)
(709500 4735115 2137.63501)
(709500 4738955 2158.163086)
(709500 4739595 2301.25708)
(709500 4739755 2360.621094)
(709340 4739755 2283.927979)
(709500 4740075 2228.943115)
(709500 4740235 2213.070068)
(709660 4725035 1719.718018)
(709660 4725195 1725.057007)
(709660 4725835 1692.884033)
(709660 4726315 1659.907959)
(709660 4726475 1655.339966)
(709660 4727275 1606.067993)
(709660 4727595 1618.899048)
(709660 4728555 1644.786011)
(709660 4728715 1708.037964)
(709660 4731115 2496.77002)
(709500 4731275 2383.926025)
(709660 4731275 2383.665039)
(709500 4732235 2744.85791)
(709660 4732235 2616.531982)
(709660 4732395 2683.669922)
(709500 4732395 2654.898926)
(709660 4734955 2194.163086)
(709660 4735115 2136.922119)
(709660 4737995 2502.062012)
(709660 4739275 2248.825928)
(709660 4739435 2331.312012)
(709660 4739595 2340.120117)
(709660 4724875 1651.23999)
(709820 4724875 1683.880981)
(709820 4725035 1660.442993)
(709820 4725195 1659.94397)
(709820 4727435 1587.979004)
(709820 4729995 1927.55896)
(709660 4729995 2199.602051)
(709660 4730955 2525.896973)
(709820 4731435 2255.721924)
(709820 4731595 2252.475098)
(709820 4731755 2233.486084)
(709820 4732235 2495.133057)
(709660 4732715 2598.066895)
(709820 4732715 2410.85498)
(709660 4732875 2575.577881)
(709820 4732875 2418.678955)
(709660 4733035 2609.327881)
(709660 4733195 2521.48999)
(709820 4734955 2183.204102)
(709820 4737835 2424.677979)
(709820 4738955 2070.469971)
(709820 4739115 2077.441895)
(709980 4724395 1612.640015)
(709980 4724555 1644.156006)
(709820 4724555 1597.905029)
(709980 4724715 1631.776001)
(709820 4724715 1643.165039)
(709980 4725035 1597.071045)
(709980 4729675 1819.291016)
(709820 4730155 2012.468994)
(709980 4730155 1847.68103)
(709980 4730955 2198.51709)
(709980 4731275 2240.519043)
(709980 4731595 2189.458984)
(709820 4732395 2531.072021)
(709980 4732395 2342.240967)
(709820 4732555 2458.322998)
(709980 4733195 2468.908936)
(709980 4733675 2173.927979)
(709820 4733835 2330.290039)
(709820 4733995 2417.687988)
(709980 4733995 2294.159912)
(709980 4734955 2152.082031)
(709980 4735115 2128.246094)
(709820 4737995 2406.85498)
(709980 4738955 2042.253052)
(709980 4739115 2036.45105)
(709980 4739435 2144.12793)
(709980 4739595 2167.513916)
(709820 4739595 2217.939941)
(710140 4728875 1616.482056)
(710140 4729035 1651.927979)
(709980 4729035 1722.13501)
(709980 4729515 1834.973999)
(710140 4729515 1724.692993)
(709980 4730315 1934.187012)
(710140 4730315 1815.853027)
(709980 4730475 2007.187988)
(710140 4730795 1995.482056)
(710140 4731115 2136.343018)
(710140 4732715 2343.133057)
(710140 4733035 2402.833008)
(710140 4733195 2218.787109)
(710140 4733995 2196.302002)
(709980 4734155 2318.055908)
(710140 4734955 2162.552002)
(710140 4735115 2143.540039)
(710140 4737995 2437.727051)
(710140 4738955 2018.277954)
(710140 4739435 2075.946045)
(710140 4729195 1670.130005)
(710300 4729195 1774.420044)
(710300 4729515 1743.905029)
(710300 4732555 2113.535889)
(710300 4732715 2284.98291)
(710300 4732875 2306.9021)
(710300 4733035 2380.899902)
(710300 4733995 2117.75)
(710300 4734955 2191.428955)
(710300 4737835 2313.187012)
(710300 4738955 1977.116943)
(710300 4739115 2050.493896)
(710300 4739275 2064.789062)
(710300 4739435 2055.612061)
(710460 4727595 1562.647949)
(710460 4727755 1552.920044)
(710300 4727755 1512.850952)
(710460 4729515 1896.822021)
(710460 4729675 1832.555054)
(710460 4729835 1848.760986)
(710460 4730155 1863.567017)
(710460 4730315 1857.988037)
(710460 4730475 1859.71106)
(710460 4731115 2097.836914)
(710460 4732235 2061.236084)
(710460 4732395 2014.630005)
(710460 4732555 2021.386963)
(710460 4732715 2091.780029)
(710460 4732875 2225.589111)
(710460 4733035 2338.559082)
(710300 4734315 2100.101074)
(710460 4734315 2081.437988)
(710460 4734955 2237.324951)
(710460 4735115 2223.720947)
(710460 4735915 2132.238037)
(710460 4736075 2104.405029)
(710460 4737835 2388.263916)
(710300 4737995 2308.060059)
(710460 4738955 1949.192017)
(710460 4739115 2087.356934)
(710460 4739275 2053.326904)
(710460 4739435 2017.896973)
(710300 4739595 2058.083984)
(710460 4739595 2032.11499)
(710460 4739755 2028.26001)
(710300 4739755 2076.400879)
(710620 4727755 1632.237061)
(710620 4727915 1643.918945)
(710460 4727915 1589.102051)
(710460 4728075 1658.573975)
(710620 4729675 1993.880981)
(710620 4729835 1967.110962)
(710620 4729995 2005.651001)
(710620 4730155 1981.22998)
(710620 4730315 1990.036011)
(710460 4730635 1947.723022)
(710620 4730635 2057.587891)
(710460 4730795 2066.13501)
(710620 4730795 2092.163086)
(710620 4730955 2120.979004)
(710620 4731275 2171.623047)
(710620 4731915 2155.383057)
(710620 4732075 2075.206055)
(710460 4734475 2091.330078)
(710620 4734475 2076.833008)
(710620 4734635 2114.059082)
(710460 4734635 2139.596924)
(710620 4734955 2246.843994)
(710620 4735595 2224.965088)
(710620 4735755 2237.460938)
(710620 4735915 2220.822998)
(710620 4736075 2159.856934)
(710620 4736235 2117.812988)
(710620 4737675 2344.62207)
(710620 4737835 2442.14209)
(710460 4737995 2445.573975)
(710620 4739275 2058.843018)
(710620 4739435 1985.446045)
(710620 4739755 2004.772949)
(710460 4739915 2074.406982)
(710780 4727915 1700.395996)
(710780 4728075 1681.052002)
(710780 4730635 2097.044922)
(710780 4730795 2133.584961)
(710780 4730955 2193.716064)
(710780 4731275 2276.459961)
(710780 4731435 2257.322021)
(710780 4731915 2204.00293)
(710620 4732395 1969.636963)
(710780 4732395 1937.55896)
(710620 4732555 1991.121948)
(710780 4732555 1979.157959)
(710620 4734795 2223.062012)
(710780 4736235 2164.427979)