/*--------------------------------*- C++ -*----------------------------------*\
  =========                 |
  \\      /  F ield         | OpenFOAM: The Open Source CFD Toolbox
   \\    /   O peration     | Website:  https://openfoam.org
    \\  /    A nd           | Version:  6
     \\/     M anipulation  |
\*---------------------------------------------------------------------------*/
FoamFile
{
    version     2.0;
    format      ascii;
    class       featureEdgeMesh;
    location    "constant/triSurface";
    object      Praderas.eMesh;
}
// * * * * * * * * * * * * * * * * * * * * * * * * * * * * * * * * * * * * * //


// points:

730
(
(718620 4738795 1303.44397)
(704220 4725835 1275.300049)
(704220 4725995 1295.130005)
(704060 4725995 1267.859009)
(704380 4725995 1327.187012)
(704220 4726155 1343.853027)
(704220 4726475 1380.958984)
(704540 4722155 910.2559814)
(704540 4722315 905.5380249)
(704380 4722315 901.9039917)
(704380 4722475 946.0670166)
(704380 4725835 1309.708984)
(704540 4725835 1318.276001)
(704540 4725995 1350.598022)
(704540 4726315 1419.852051)
(704540 4726475 1470.244995)
(704540 4726635 1508.228027)
(704380 4726635 1470.378052)
(704700 4722155 908.6929932)
(704540 4722475 921.1259766)
(704700 4726155 1405.026978)
(704700 4726315 1447.555054)
(704860 4725995 1401.284058)
(704860 4726155 1433.402954)
(705020 4722155 912.5629883)
(705020 4722475 971.632019)
(705020 4726155 1463.214966)
(704860 4726315 1484.255005)
(705020 4726315 1517.409058)
(705180 4721995 917.3309937)
(705180 4722315 944.7119751)
(705180 4725835 1410.454956)
(705180 4725995 1445.706055)
(705020 4725995 1431.322998)
(705340 4721995 921.8889771)
(705340 4722155 936.0910034)
(705340 4722315 992.6660156)
(705660 4721675 941.0009766)
(705660 4721835 930.835022)
(705820 4721675 937.2009888)
(705820 4721835 960.5410156)
(705980 4721355 956.4279785)
(705980 4721675 940.5139771)
(705985 4721195 990.2600098)
(706140 4721515 974.9420166)
(705980 4721835 988.8369751)
(706145 4721195 972.2109985)
(706300 4721515 1003.322998)
(706300 4721675 949.2639771)
(706300 4721835 967.1350098)
(709980 4728235 1491.68103)
(709980 4728395 1505.339966)
(709820 4728395 1540.995972)
(709820 4728555 1555.131958)
(710140 4727275 1457.790039)
(710140 4727435 1441.347046)
(709980 4727435 1492.562988)
(710140 4727755 1465.973999)
(710140 4727915 1485.439941)
(710140 4728235 1511.930054)
(710300 4727275 1424.692993)
(710300 4727755 1512.850952)
(710300 4728235 1590.718994)
(710140 4728395 1520.005981)
(710300 4728395 1593.641968)
(710300 4728555 1601.603027)
(710140 4728715 1586.94397)
(715100 4724235 1338.375977)
(714940 4724395 1370.501953)
(714940 4724555 1365.48999)
(715100 4723915 1347.470947)
(715260 4724075 1315.822998)
(715260 4724235 1339.78894)
(715580 4723435 1279.904053)
(715580 4723915 1327.060059)
(715580 4724075 1374.421021)
(715580 4723275 1294.487061)
(715740 4723275 1268.307007)
(715740 4723755 1305.552979)
(715740 4723915 1365.23999)
(715900 4723755 1337.819946)
(716060 4722955 1293.097046)
(716060 4723115 1238.373047)
(716060 4723595 1299.446045)
(716060 4722635 1298.594971)
(716220 4722955 1239.046997)
(716220 4723115 1236.067993)
(716220 4723595 1309.590942)
(716380 4722635 1261.668945)
(716380 4722795 1230.927002)
(716380 4723435 1282.722046)
(716380 4738795 1444.843994)
(716380 4738955 1491.391968)
(716220 4738955 1512.27002)
(716220 4739115 1540.243042)
(716380 4721835 1309.598999)
(716540 4721835 1270.840942)
(716380 4721995 1347.416992)
(716540 4722475 1261.890015)
(716540 4722635 1234.698975)
(716540 4723275 1270.876953)
(716540 4723435 1312.209961)
(716540 4738795 1433.186035)
(716540 4738955 1478.06897)
(716380 4739115 1500.828003)
(716540 4739115 1491.416992)
(716540 4721675 1243.633057)
(716700 4721675 1221.295044)
(716700 4721835 1237.717041)
(716540 4721995 1306.873047)
(716700 4722475 1238.641968)
(716700 4722635 1217.817017)
(716700 4723115 1243.152954)
(716540 4724235 1403.187988)
(716700 4738795 1431.124023)
(716540 4739275 1526.016968)
(716700 4739275 1497.987061)
(716860 4721675 1218.128052)
(716860 4721835 1212.031006)
(716860 4721995 1222.166016)
(716700 4722155 1285.734009)
(716700 4722315 1268.302002)
(716860 4722315 1266.380005)
(716860 4722475 1234.453003)
(716860 4722635 1199.975952)
(716860 4722955 1239.862061)
(716860 4723115 1266.573975)
(716860 4723915 1336.36499)
(716860 4724075 1370.858032)
(716860 4724235 1433.180054)
(716860 4739275 1486.244019)
(716700 4739435 1579.366943)
(717020 4721675 1199.019043)
(717020 4721835 1187.456055)
(716860 4722155 1246.978027)
(717020 4722155 1210.936035)
(717020 4722475 1215.206055)
(717020 4722635 1186.744995)
(717020 4722795 1242.631958)
(717020 4722955 1261.600952)
(717020 4723915 1319.713013)
(717020 4738795 1406.046021)
(717020 4739115 1450.050049)
(717020 4739275 1511.588013)
(717020 4722315 1242.405029)
(717180 4722315 1201.261963)
(717180 4722475 1180.947021)
(717180 4722635 1202.946045)
(717020 4723755 1346.160034)
(717020 4724075 1376.512939)
(717180 4724075 1373)
(717180 4738635 1352.120972)
(717180 4738795 1387.901978)
(717180 4739115 1421.156006)
(717340 4721835 1146.574951)
(717340 4721995 1147.640991)
(717340 4722315 1184.04895)
(717340 4722475 1159.662964)
(717180 4722795 1260.292969)
(717340 4723435 1281.843018)
(717340 4723915 1315.208008)
(717340 4738635 1318.753052)
(717340 4738955 1385.176025)
(717340 4739115 1411.637939)
(717180 4739275 1502.374023)
(717500 4721835 1142.490967)
(717500 4722155 1138.578979)
(717500 4722475 1198.706055)
(717500 4722955 1273.618042)
(717500 4723115 1275.392944)
(717340 4723115 1308.661011)
(717340 4723275 1303.551025)
(717500 4723755 1292.277954)
(717500 4723915 1336.869019)
(717500 4738795 1346.149048)
(717500 4739115 1423.766968)
(717660 4722955 1262.151978)
(717660 4723115 1264.631958)
(717660 4723595 1277.156982)
(717660 4723755 1311.642944)
(717500 4737835 1441.916992)
(717660 4737835 1381.863037)
(717500 4737995 1396.397949)
(717660 4737995 1367.983032)
(717500 4738155 1405.108032)
(717660 4738155 1361.718018)
(717660 4738315 1354.791016)
(717500 4738315 1374.009033)
(717660 4738795 1350.322998)
(717660 4738955 1360.890015)
(717820 4723275 1259.654053)
(717820 4723435 1287.63501)
(717820 4723595 1328.032959)
(717820 4737675 1412.781006)
(717820 4737995 1350.98999)
(717660 4738475 1324.427979)
(717660 4738635 1297.432007)
(717820 4738795 1333.293945)
(717820 4738955 1350.42395)
(717660 4739115 1431.064941)
(717980 4732235 1430.495972)
(717980 4732395 1475.285034)
(717820 4732395 1476.338013)
(717820 4732555 1520.935059)
(717980 4737835 1347.213013)
(717980 4737995 1322.105957)
(717980 4738475 1289.245972)
(717980 4738635 1299.369995)
(717980 4738955 1302.404053)
(717820 4739115 1409.879028)
(717980 4739115 1332.087036)
(717980 4722315 1169.436035)
(718140 4722315 1151.099976)
(718140 4722475 1189.838013)
(718140 4722635 1192.417969)
(718140 4722795 1202.36499)
(717980 4722955 1239.682983)
(718140 4722955 1235.82605)
(718140 4723115 1300.427002)
(718140 4723275 1335.827026)
(718140 4732235 1413.873047)
(718140 4732395 1455.579956)
(717980 4732555 1514.744019)
(718140 4737835 1314.651001)
(718140 4738155 1266.141968)
(718140 4738955 1285.084961)
(718140 4739115 1342.281006)
(717980 4739275 1387.282959)
(718300 4722315 1126.006958)
(718300 4722475 1174.233032)
(718300 4722635 1189.213013)
(718300 4722795 1208.067017)
(718300 4732235 1437.261963)
(718300 4732395 1449.832031)
(718140 4732555 1510.82605)
(718300 4737835 1282.136963)
(718300 4737995 1257.041992)
(718300 4738155 1260.968994)
(718300 4738315 1262.359009)
(718300 4738635 1275.134033)
(718300 4738955 1278.338013)
(718300 4739115 1315.040039)
(718300 4739275 1336.899048)
(718460 4732235 1398.957031)
(718460 4732395 1438.019043)
(718300 4732555 1484.030029)
(718460 4732555 1452.953979)
(718460 4737515 1340.248047)
(718460 4737675 1291.791992)
(718300 4737675 1314.68103)
(718460 4737835 1257.542969)
(718460 4738315 1254.73999)
(718460 4738635 1300.728027)
(718460 4738795 1340.797974)
(718460 4739115 1277.352051)
(718460 4739275 1325.124023)
(718300 4739435 1346.125)
(718460 4739435 1335.213013)
(718460 4739595 1318.656982)
(718300 4739595 1352.334961)
(718460 4739755 1326.512939)
(718300 4739755 1371.83606)
(718460 4739915 1316.765015)
(718300 4739915 1370.633057)
(718300 4740075 1399.213989)
(718460 4732075 1339.432983)
(718620 4732075 1326.598999)
(718620 4732395 1397.859985)
(718620 4732555 1404.706055)
(718460 4732715 1468.812012)
(718620 4737675 1267.973999)
(718620 4738475 1262.93103)
(718620 4738635 1309.995972)
(718460 4738955 1277.625)
(718620 4738955 1304.637939)
(718620 4739275 1281.71106)
(718620 4739435 1283.842041)
(718620 4739595 1293.177002)
(718620 4739755 1292.021973)
(718620 4739915 1295.542969)
(718620 4740075 1339.262939)
(718460 4740075 1351.760986)
(718620 4730475 1331.501953)
(718620 4731115 1313.02002)
(718780 4731115 1312.264038)
(718780 4731915 1280.218018)
(718780 4732235 1338.244995)
(718780 4732555 1369.050049)
(718620 4734795 1395.685059)
(718780 4738635 1365.984009)
(718780 4738795 1350.349976)
(718780 4738955 1338)
(718780 4739275 1298.827026)
(718780 4739435 1292.100952)
(718780 4739595 1296.590942)
(718780 4739755 1302.780029)
(718940 4721835 880.2009888)
(718940 4721995 874.0419922)
(718780 4721995 907.5349731)
(718940 4722155 867.7130127)
(718780 4722155 910.5159912)
(718940 4729995 1339.823975)
(718940 4730155 1272.291016)
(718780 4730155 1294.457031)
(718940 4730955 1308.649048)
(718940 4731915 1257.297974)
(718940 4732075 1290.644043)
(718940 4732235 1296.027954)
(718940 4734795 1309.137939)
(718940 4738795 1420.765991)
(718940 4738955 1398.814941)
(718940 4739115 1397.297974)
(718940 4739275 1379.171997)
(718940 4739435 1347.696045)
(718940 4739755 1323.494995)
(718780 4739915 1295.769043)
(718940 4722475 895.5869751)
(719100 4722475 849.6110229)
(719100 4730155 1256.21106)
(719100 4730315 1243.19104)
(719100 4730955 1287.837036)
(718940 4731115 1279.535034)
(718940 4731755 1174.715942)
(719100 4731755 1161.098999)
(719100 4731915 1213.31604)
(719100 4732235 1271.447998)
(718940 4732395 1316.06604)
(719100 4734315 1354.199951)
(718940 4734955 1316.781982)
(719100 4734955 1273.725952)
(719100 4739755 1354.305054)
(719100 4739915 1354.668945)
(719260 4721675 852.4349976)
(719260 4721995 853.4769897)
(719260 4722155 852.8040161)
(719260 4722315 849.5560303)
(719260 4722475 850.0239868)
(719100 4722635 854.2800293)
(719260 4722635 851.2329712)
(719260 4722795 851.0440063)
(719260 4722955 851.2639771)
(719100 4723115 876.0189819)
(719260 4723115 861.3109741)
(719260 4730315 1206.009033)
(719260 4730475 1205.214966)
(719260 4730795 1236.438965)
(719260 4730955 1244.04895)
(719260 4731915 1186.759033)
(719260 4732555 1313.891968)
(719260 4732715 1303.432007)
(719100 4732715 1339.770996)
(719100 4732875 1357.083008)
(719260 4732875 1320.188965)
(719260 4734955 1253.260986)
(719100 4735115 1202.13501)
(719420 4721675 839.5809937)
(719420 4721835 844.3770142)
(719420 4721995 847.9899902)
(719420 4722795 853.6829834)
(719420 4722955 853.6920166)
(719420 4723595 865.2260132)
(719420 4723755 868.098999)
(719260 4723755 868.0980225)
(719260 4723915 883.0629883)
(719420 4730635 1173.302979)
(719420 4731755 1149.23999)
(719420 4732075 1211.573975)
(719420 4732235 1242.883057)
(719260 4732235 1260.589966)
(719260 4732395 1287.970947)
(719420 4732395 1255.329956)
(719420 4732555 1296.187012)
(719420 4732875 1294.88501)
(719420 4733035 1337.015991)
(719260 4733035 1373.177979)
(719420 4734315 1323.642944)
(719420 4734635 1269.953979)
(719420 4734955 1248.991943)
(719580 4723275 875.2930298)
(719580 4723435 868.8389893)
(719420 4723435 862.4329834)
(719580 4730475 1146.983032)
(719580 4730635 1120.484009)
(719420 4730795 1179.265991)
(719580 4731275 1075.767944)
(719580 4731435 1088.10498)
(719420 4731435 1100.506958)
(719580 4731755 1153.04895)
(719580 4731915 1186.583008)
(719580 4732235 1226.833008)
(719580 4732555 1248.82605)
(719580 4732875 1268.567017)
(719580 4733035 1306.542969)
(719420 4733195 1362.494019)
(719580 4733195 1330.035034)
(719580 4733355 1355.167969)
(719420 4733355 1390.396973)
(719420 4733515 1435.879028)
(719580 4733515 1379.857056)
(719420 4733675 1409.657959)
(719580 4733675 1390.078979)
(719580 4734635 1222.152954)
(719580 4734955 1215.339966)
(719420 4735115 1179.20105)
(719740 4721675 841.5900269)
(719580 4721675 841.492981)
(719740 4721835 843.3909912)
(719580 4721835 844.2990112)
(719740 4721995 844.9509888)
(719580 4721995 843.7160034)
(719740 4722155 847.5029907)
(719580 4722155 846.15802)
(719740 4722315 848.6129761)
(719580 4722315 849.6149902)
(719580 4722475 848.5139771)
(719740 4722475 850.7800293)
(719580 4722955 852.3280029)
(719740 4723435 865.1989746)
(719740 4723915 877.7329712)
(719740 4731275 1065.144043)
(719740 4731435 1081.262939)
(719580 4731595 1120.03894)
(719740 4731595 1106.545044)
(719740 4731755 1121.369995)
(719740 4732075 1180.569946)
(719740 4732235 1200.473999)
(719740 4732715 1239.093018)
(719740 4733035 1281.437012)
(719740 4733355 1336.858032)
(719580 4733835 1348.849976)
(719740 4733995 1299.380981)
(719580 4734155 1308.400024)
(719580 4734475 1243.472046)
(719740 4734635 1199.907959)
(719900 4721355 847.3569946)
(719900 4721515 846.0910034)
(719900 4723275 876.9260254)
(719900 4723435 895.1279907)
(719900 4723595 901.4940186)
(719900 4723755 907.367981)
(719740 4724075 877.9899902)
(719900 4724075 897.9069824)
(719900 4731435 1065.089966)
(719900 4731595 1085.652954)
(719900 4731755 1098.154053)
(719900 4732075 1177.069946)
(719900 4732395 1184.885986)
(719900 4732555 1246.041992)
(719900 4732875 1260.741943)
(719900 4733035 1259.578003)
(719740 4733195 1316.749023)
(719900 4733195 1261.91394)
(719900 4733355 1286.619995)
(719740 4733515 1352.678955)
(719900 4733515 1286.784058)
(719900 4733835 1289.865967)
(719900 4733995 1291.109985)
(719740 4734155 1266.5)
(719900 4734155 1252.887939)
(719900 4734475 1192.464966)
(720060 4721355 849.2509766)
(720060 4721515 851.2670288)
(720060 4722795 852.257019)
(720060 4723275 884.5560303)
(720060 4723595 970.2520142)
(720060 4731595 1065.089966)
(720060 4731755 1068.92395)
(720060 4732395 1167.235962)
(720060 4732555 1185.753052)
(720060 4732875 1223.98999)
(720060 4733035 1249.543945)
(720060 4733515 1273.135986)
(719900 4733675 1301.121948)
(720060 4733675 1265.937012)
(720060 4733835 1258.987061)
(720060 4733995 1257.588013)
(720060 4734155 1214.837036)
(720220 4722635 854.6069946)
(720220 4722795 863.3040161)
(720220 4722955 864.5250244)
(720220 4732715 1147.884033)
(720220 4733355 1252.052002)
(720220 4733515 1259.921997)
(720220 4733675 1240.416992)
(720220 4733835 1222.68103)
(720220 4733995 1203.782959)
(720380 4729835 1232.343018)
(720380 4729995 1262.357056)
(720220 4729995 1093.307007)
(720380 4733515 1153.524048)
(720380 4733675 1194.198975)
(720380 4733835 1189.276978)
(720380 4733995 1157.17395)
(720220 4734155 1204.871948)
(720540 4721515 864.867981)
(720540 4721675 864.7310181)
(720540 4722635 870.7230225)
(720380 4730155 1300.44104)
(720540 4730155 1311.991943)
(720380 4730315 1264.222046)
(720380 4734155 1115.401001)
(720540 4734155 1075.551025)
(720380 4734315 1096.651001)
(720700 4721515 869.2080078)
(720700 4721675 869.2750244)
(720700 4722315 864.3049927)
(720700 4722475 885.1030273)
(720700 4729835 1265.493042)
(720700 4730155 1292.246948)
(720700 4730315 1321.557983)
(720700 4733835 1104.099976)
(720540 4733835 1076.55896)
(720700 4734155 1101.800049)
(720540 4734315 1117.503052)
(720700 4734315 1124.571045)
(720860 4729675 1242.416016)
(720860 4729835 1247.553955)
(720860 4730155 1287.118042)
(720860 4730315 1330.723999)
(720700 4730475 1318.161987)
(720860 4733355 1071.287964)
(720860 4733515 1096.605957)
(720700 4733515 1065.089966)
(720860 4733995 1130.010986)
(721020 4729835 1299.06897)
(721020 4729995 1325.269043)
(721020 4730155 1323.491943)
(721020 4730315 1338.343018)
(720860 4732875 1066.750977)
(720860 4733035 1065.442993)
(721020 4733035 1070.675049)
(720860 4733195 1067.264038)
(721020 4733675 1145.478027)
(721020 4733835 1170.892944)
(721020 4733995 1177.18103)
(721180 4721675 883.3430176)
(721180 4721835 884.9030151)
(721180 4722315 964.2689819)
(721180 4730155 1359.050049)
(721020 4730475 1355.350952)
(721180 4730475 1340.892944)
(721180 4730635 1320.953003)
(721020 4730635 1320.328003)
(721180 4732875 1082.692017)
(721180 4733195 1082.473999)
(721180 4733355 1100.235962)
(721180 4733515 1128.879028)
(721180 4733675 1176.400024)
(721180 4733995 1216.214966)
(721340 4721675 886.8359985)
(721340 4721995 915.9580078)
(721340 4722155 941.382019)
(721340 4722315 992.8829956)
(721180 4722475 1030.083984)
(721340 4730155 1391.857056)
(721340 4730315 1397.729004)
(721340 4730475 1371.277954)
(721340 4730635 1351.13501)
(721180 4730795 1290.863037)
(721340 4733195 1125.842041)
(721340 4733355 1127.081055)
(721340 4721515 896.9699707)
(721500 4721515 929.9180298)
(721500 4721835 906.5750122)
(721500 4721995 943.4780273)
(721500 4722155 971.8480225)
(721500 4722315 1007.036011)
(721500 4730155 1433.963989)
(721500 4730315 1427.740967)
(721345 4721195 1017.138)
(721505 4721195 1031.05603)
(721500 4721355 984.0780029)
(721660 4721355 995.2369995)
(721660 4721515 974.6010132)
(721500 4721675 894.5780029)
(721660 4721835 899.1339722)
(721660 4721995 974.2379761)
(721660 4730155 1472.051025)
(721660 4730315 1490.125)
(721500 4730475 1409.291016)
(721660 4730475 1442.905029)
(721500 4730635 1384.23999)
(721820 4721835 902.8120117)
(721820 4721995 968.132019)
(721820 4722475 1034.515991)
(721820 4730315 1535.348022)
(721660 4730635 1407.06604)
(721820 4730635 1445.57605)
(721660 4730795 1373.626953)
(721980 4721355 1038.150024)
(721980 4721515 1009.997009)
(721980 4721675 981.4990234)
(721980 4721995 944.151001)
(721980 4722155 994.5939941)
(721980 4722315 1028.95105)
(721980 4733835 1212.506958)
(721980 4733995 1303.612061)
(721820 4733995 1309.338989)
(721820 4734155 1393.753052)
(722140 4721675 993.4299927)
(721980 4721835 917.8709717)
(722140 4721835 952.6300049)
(722140 4722315 1039.432983)
(722140 4733995 1307.749023)
(722300 4721515 1035.725952)
(722300 4721675 1007.169983)
(722300 4722155 1015.768982)
(722300 4733835 1237.54895)
(722300 4734155 1306.087036)
(704220 4726315 1366.990967)
(704380 4726475 1425.890015)
(704700 4722475 925.8400269)
(704700 4725995 1369.035034)
(704860 4722155 909.0410156)
(704860 4722475 946.5889893)
(705500 4721835 926.0009766)
(705500 4721995 943.6209717)
(705820 4721515 959.5250244)
(706140 4721355 994.9310303)
(706140 4721835 988.2680054)
(709980 4727595 1481.296997)
(710140 4727595 1453.706055)
(709980 4727755 1484.282959)
(709980 4727915 1494.776978)
(709980 4728075 1505.668945)
(710140 4728075 1502.97998)
(710140 4728555 1530.843994)
(715100 4724395 1344.647949)
(715260 4723755 1335.119019)
(715100 4724075 1353.239014)
(715420 4723595 1309.746948)
(715420 4724075 1328.093994)
(715900 4723115 1281.340942)
(716220 4722635 1268.23999)
(716060 4722795 1307.607056)
(716700 4724235 1405.452026)
(716700 4724075 1367.687988)
(716700 4721995 1260.077026)
(716860 4738795 1434.499023)
(717180 4721835 1158.620972)
(717180 4723595 1323.092041)
(717340 4722635 1213.307983)
(717340 4738795 1368.050049)
(717500 4721995 1128.504028)
(717820 4723115 1240.246948)
(717820 4737835 1363.791992)
(717820 4738475 1304.420044)
(717820 4738635 1307.004028)
(717980 4723115 1292.314941)
(717980 4723275 1286.479004)
(717980 4722475 1186.113037)
(717980 4722635 1187.838989)
(717980 4722795 1205.698975)
(718140 4738635 1270.276978)
(718140 4739275 1354.024048)
(718460 4738475 1257.327026)
(718300 4738795 1291.553955)
(718620 4732235 1372.94397)
(718780 4730315 1306.387939)
(718620 4730635 1330.887939)
(718620 4730795 1313.678955)
(718620 4730955 1313.871948)
(718780 4732395 1349.719971)
(718780 4734795 1341.456055)
(718780 4734635 1348.843994)
(718620 4739115 1286.577026)
(718940 4734475 1328.953979)
(718940 4739595 1317.171997)
(718940 4739915 1335.896973)
(719100 4721835 865.7800293)
(718940 4722315 861.1729736)
(719100 4732075 1240.583008)
(719100 4722795 852.3950195)
(719100 4722955 858.8839722)
(719260 4734315 1357.209961)
(719420 4723915 881.6129761)
(719420 4730475 1162.803955)
(719420 4731915 1191.001953)
(719420 4734475 1290.225952)
(719580 4723915 872.9400024)
(719580 4732075 1210.11499)
(719420 4732715 1275.030029)
(719580 4734795 1216.605957)
(719740 4721515 842.4559937)
(719580 4722635 852.0620117)
(719580 4722795 852.7509766)
(719740 4722955 854.78302)
(719580 4732395 1235.972046)
(719740 4733835 1334.137939)
(719580 4733995 1311.478027)
(719740 4734475 1223.401978)
(719900 4722955 853.4899902)
(719900 4723915 897.7349854)
(719740 4731915 1162.547974)
(719900 4731915 1117.418945)
(719900 4732235 1183.009033)
(719900 4732715 1247.293945)
(720060 4722955 853.7180176)
(720060 4732715 1210.026978)
(720060 4733195 1274.620972)
(720060 4733355 1272.35498)
(720220 4721515 855.2249756)
(720380 4721515 859.9749756)
(720380 4722635 862.9060059)
(720540 4729835 1240.21106)
(720540 4730315 1318.900024)
(720700 4733675 1077.505981)
(720860 4721675 874.6640015)
(720860 4722315 895.4169922)
(720700 4733995 1110.983032)
(720860 4734155 1121.022949)
(721020 4721675 879.4539795)
(721020 4722315 929.0139771)
(721020 4732875 1071.704956)
(721180 4733035 1091.319946)
(721180 4733835 1212.904053)
(721340 4721835 895.1610107)
(721340 4722475 1043.004028)
(721500 4722475 1035.177002)
(721660 4721675 947.427002)
(721660 4722475 1027.119019)
(721820 4721355 1014.929993)
(721820 4721675 960.71698)
(721980 4734155 1351.28894)
(722140 4721515 1020.497009)
(722140 4722155 1003.838013)
(722140 4734155 1333.062988)
(722300 4733995 1267.545044)
(706140 4721675 944.3330078)
(715900 4723275 1249.192017)
)


// edges:

825
(
(486 487)
(48 728)
(82 729)
(272 0)
(0 273)
(1 2)
(2 3)
(3 1)
(5 4)
(609 5)
(6 609)
(610 6)
(7 8)
(9 7)
(8 10)
(10 9)
(11 12)
(4 11)
(12 13)
(14 15)
(15 610)
(15 16)
(16 17)
(17 15)
(8 18)
(19 8)
(611 19)
(13 612)
(20 21)
(21 14)
(18 613)
(614 611)
(612 22)
(22 23)
(23 20)
(613 24)
(25 614)
(23 26)
(27 23)
(26 28)
(28 27)
(24 29)
(30 25)
(31 32)
(32 33)
(33 31)
(29 34)
(35 36)
(36 30)
(34 615)
(616 35)
(37 38)
(615 37)
(38 616)
(39 37)
(37 617)
(40 38)
(38 39)
(617 41)
(42 40)
(41 43)
(618 44)
(45 42)
(619 45)
(43 46)
(46 618)
(44 47)
(47 48)
(48 49)
(49 619)
(50 51)
(52 50)
(51 53)
(53 52)
(56 54)
(620 56)
(55 621)
(622 620)
(621 57)
(623 622)
(624 623)
(58 625)
(50 624)
(625 59)
(59 50)
(54 60)
(60 55)
(57 61)
(61 58)
(59 62)
(62 63)
(63 59)
(63 64)
(626 63)
(64 65)
(65 66)
(66 626)
(68 67)
(627 69)
(69 68)
(70 628)
(629 70)
(67 629)
(71 72)
(72 627)
(628 630)
(631 71)
(630 73)
(75 631)
(76 77)
(73 76)
(78 74)
(74 79)
(79 75)
(77 632)
(80 78)
(81 82)
(632 81)
(83 80)
(84 633)
(634 84)
(81 634)
(85 81)
(82 86)
(87 83)
(633 88)
(88 89)
(86 85)
(90 87)
(93 91)
(92 94)
(94 93)
(95 96)
(96 97)
(97 95)
(99 88)
(88 98)
(89 99)
(100 101)
(101 90)
(91 102)
(102 103)
(104 92)
(105 104)
(106 107)
(107 96)
(96 106)
(96 108)
(108 109)
(109 96)
(98 110)
(110 111)
(112 100)
(635 113)
(113 636)
(103 114)
(115 105)
(116 115)
(107 117)
(108 107)
(117 118)
(637 108)
(119 120)
(120 637)
(121 122)
(110 121)
(122 123)
(123 110)
(111 124)
(125 126)
(126 112)
(636 127)
(128 129)
(129 635)
(114 638)
(130 131)
(131 116)
(132 133)
(118 132)
(134 119)
(135 134)
(123 136)
(136 124)
(124 123)
(124 137)
(138 139)
(139 125)
(127 140)
(140 128)
(638 141)
(142 143)
(143 130)
(133 639)
(144 135)
(145 144)
(146 136)
(136 145)
(137 146)
(147 138)
(148 640)
(140 148)
(149 140)
(150 149)
(151 152)
(141 151)
(153 142)
(639 154)
(154 155)
(156 157)
(641 158)
(158 147)
(640 159)
(160 150)
(161 642)
(152 161)
(642 162)
(163 164)
(164 153)
(165 643)
(155 165)
(643 166)
(166 156)
(157 167)
(167 641)
(168 169)
(169 170)
(170 168)
(171 169)
(159 171)
(172 173)
(173 160)
(162 174)
(175 163)
(176 177)
(169 176)
(179 172)
(180 181)
(181 182)
(182 180)
(182 183)
(184 182)
(185 184)
(186 187)
(187 185)
(174 188)
(189 175)
(177 644)
(190 191)
(191 178)
(178 192)
(192 179)
(193 645)
(181 193)
(183 181)
(645 194)
(195 186)
(646 195)
(196 647)
(188 196)
(197 198)
(198 199)
(199 189)
(644 648)
(649 190)
(202 200)
(201 203)
(203 202)
(204 205)
(194 204)
(206 646)
(647 207)
(207 197)
(198 208)
(209 198)
(208 210)
(210 209)
(211 212)
(650 211)
(212 213)
(651 650)
(213 214)
(652 651)
(214 215)
(216 652)
(217 216)
(648 218)
(218 219)
(219 649)
(200 220)
(220 221)
(221 222)
(222 201)
(205 223)
(207 206)
(653 207)
(225 226)
(210 225)
(227 210)
(654 227)
(228 229)
(229 213)
(213 228)
(229 230)
(230 214)
(214 229)
(215 231)
(231 217)
(232 233)
(221 232)
(233 234)
(234 221)
(223 235)
(235 236)
(236 224)
(224 237)
(237 238)
(239 653)
(240 241)
(226 240)
(242 654)
(243 244)
(233 243)
(245 233)
(246 245)
(247 248)
(249 247)
(235 249)
(250 235)
(238 251)
(251 655)
(655 252)
(656 239)
(253 240)
(240 656)
(241 254)
(254 255)
(256 242)
(257 256)
(258 259)
(259 257)
(260 261)
(261 258)
(263 260)
(262 264)
(264 263)
(265 266)
(243 265)
(657 243)
(244 267)
(268 269)
(269 246)
(248 270)
(270 250)
(271 272)
(252 271)
(273 253)
(274 273)
(255 275)
(275 276)
(277 260)
(260 278)
(278 279)
(279 262)
(279 280)
(280 281)
(281 279)
(282 658)
(659 282)
(660 659)
(661 660)
(283 661)
(284 283)
(266 285)
(286 657)
(286 662)
(267 286)
(662 287)
(287 268)
(663 288)
(288 664)
(272 289)
(289 290)
(665 274)
(275 665)
(292 275)
(276 292)
(293 277)
(277 294)
(278 277)
(295 278)
(296 297)
(297 298)
(298 296)
(299 300)
(300 297)
(301 302)
(302 303)
(303 301)
(658 302)
(304 284)
(285 305)
(305 306)
(307 286)
(664 666)
(308 663)
(290 309)
(309 291)
(291 310)
(310 311)
(311 292)
(292 312)
(312 293)
(293 313)
(294 293)
(313 667)
(667 314)
(315 295)
(668 315)
(297 669)
(670 299)
(316 670)
(317 316)
(302 318)
(318 319)
(320 321)
(321 304)
(322 323)
(305 322)
(323 324)
(324 305)
(306 324)
(671 307)
(307 325)
(325 326)
(326 307)
(666 327)
(328 308)
(329 328)
(314 330)
(330 331)
(331 668)
(669 332)
(334 335)
(335 317)
(317 336)
(336 337)
(337 317)
(337 338)
(672 337)
(338 339)
(673 672)
(341 673)
(340 342)
(342 341)
(319 343)
(343 344)
(345 346)
(346 320)
(324 347)
(347 671)
(350 348)
(351 350)
(349 352)
(352 351)
(327 674)
(353 354)
(354 329)
(332 355)
(355 356)
(356 333)
(333 357)
(357 334)
(339 358)
(358 359)
(359 340)
(361 362)
(362 360)
(675 363)
(363 361)
(344 676)
(364 345)
(677 347)
(347 365)
(368 366)
(369 368)
(367 370)
(370 369)
(348 371)
(371 349)
(372 373)
(373 374)
(374 372)
(674 375)
(375 678)
(678 376)
(377 353)
(378 379)
(380 378)
(360 380)
(679 675)
(676 381)
(381 364)
(364 382)
(382 383)
(383 364)
(384 385)
(385 386)
(386 384)
(365 387)
(387 388)
(388 677)
(366 680)
(389 367)
(371 390)
(681 371)
(372 681)
(391 372)
(373 391)
(392 393)
(393 373)
(394 395)
(396 394)
(395 397)
(397 396)
(397 398)
(399 397)
(398 400)
(400 399)
(376 401)
(401 682)
(682 402)
(402 403)
(403 377)
(404 405)
(405 683)
(406 407)
(407 404)
(408 409)
(409 406)
(410 411)
(411 408)
(412 413)
(413 410)
(414 415)
(684 414)
(685 684)
(416 685)
(686 416)
(379 417)
(418 679)
(419 420)
(420 385)
(385 419)
(421 422)
(387 421)
(423 387)
(680 424)
(424 425)
(687 389)
(390 687)
(427 392)
(395 428)
(428 398)
(398 395)
(429 688)
(689 429)
(430 431)
(431 689)
(432 690)
(401 432)
(433 401)
(434 435)
(683 434)
(415 412)
(691 686)
(417 436)
(437 438)
(439 692)
(440 418)
(692 441)
(441 440)
(420 442)
(422 420)
(442 443)
(693 423)
(444 694)
(424 693)
(694 445)
(445 424)
(445 695)
(425 445)
(695 446)
(447 426)
(426 696)
(448 449)
(450 427)
(451 450)
(428 452)
(453 428)
(454 453)
(688 455)
(455 430)
(430 456)
(457 430)
(456 458)
(458 457)
(690 459)
(459 433)
(460 461)
(435 460)
(697 691)
(436 463)
(463 437)
(438 464)
(464 439)
(443 465)
(465 466)
(466 444)
(446 467)
(467 468)
(468 447)
(696 698)
(469 448)
(449 470)
(470 699)
(452 451)
(699 700)
(700 471)
(472 454)
(473 472)
(455 474)
(474 456)
(456 455)
(475 476)
(476 458)
(458 475)
(461 701)
(477 462)
(462 478)
(478 479)
(479 697)
(698 480)
(480 469)
(481 482)
(471 481)
(482 473)
(473 483)
(483 474)
(474 473)
(484 485)
(485 475)
(475 484)
(701 702)
(703 477)
(487 488)
(488 486)
(482 489)
(489 483)
(483 482)
(483 490)
(490 484)
(484 483)
(491 492)
(485 491)
(492 493)
(493 485)
(702 494)
(494 495)
(496 703)
(486 704)
(497 487)
(498 497)
(705 499)
(499 498)
(500 501)
(501 502)
(502 500)
(503 504)
(495 503)
(505 506)
(506 496)
(704 507)
(508 509)
(509 705)
(510 511)
(511 706)
(501 512)
(513 501)
(514 513)
(504 707)
(708 505)
(515 516)
(507 515)
(517 508)
(509 518)
(518 519)
(519 509)
(521 522)
(522 520)
(706 521)
(709 510)
(512 709)
(710 514)
(707 711)
(712 708)
(516 524)
(524 525)
(525 517)
(526 527)
(527 518)
(518 526)
(528 713)
(529 528)
(530 529)
(531 530)
(520 531)
(532 533)
(533 523)
(523 534)
(534 710)
(711 535)
(535 536)
(537 712)
(527 538)
(539 527)
(540 539)
(540 541)
(541 542)
(542 540)
(713 543)
(543 714)
(714 544)
(545 546)
(546 532)
(547 715)
(533 547)
(534 533)
(715 548)
(548 534)
(549 716)
(536 549)
(716 550)
(551 537)
(717 553)
(553 552)
(538 554)
(554 555)
(555 556)
(556 540)
(556 557)
(541 556)
(557 558)
(558 541)
(544 559)
(559 560)
(560 545)
(561 562)
(562 549)
(549 561)
(563 564)
(550 563)
(565 552)
(552 551)
(552 566)
(718 717)
(567 568)
(568 555)
(555 567)
(569 570)
(571 569)
(570 572)
(572 571)
(562 573)
(574 562)
(719 574)
(575 576)
(564 575)
(566 565)
(720 718)
(577 578)
(578 568)
(568 577)
(579 580)
(580 581)
(581 579)
(572 721)
(573 572)
(722 719)
(582 583)
(576 582)
(584 720)
(578 585)
(585 580)
(580 578)
(586 587)
(587 588)
(588 586)
(721 589)
(589 590)
(591 722)
(583 592)
(592 593)
(594 584)
(595 596)
(596 597)
(597 595)
(723 598)
(598 596)
(590 724)
(600 591)
(599 601)
(601 600)
(593 725)
(602 594)
(596 603)
(726 723)
(724 604)
(604 605)
(605 599)
(725 606)
(606 602)
(607 727)
(603 607)
(727 608)
(608 726)
)

// * * * * * * * * * * * * * * * * * * * * * * * * * * * * * * * * * * * * * //


// ************************************************************************* //
