/*--------------------------------*- C++ -*----------------------------------*\
  =========                 |
  \\      /  F ield         | OpenFOAM: The Open Source CFD Toolbox
   \\    /   O peration     | Website:  https://openfoam.org
    \\  /    A nd           | Version:  6
     \\/     M anipulation  |
\*---------------------------------------------------------------------------*/
FoamFile
{
    version     2.0;
    format      ascii;
    class       featureEdgeMesh;
    location    "constant/triSurface";
    object      Redes_viarias.eMesh;
}
// * * * * * * * * * * * * * * * * * * * * * * * * * * * * * * * * * * * * * //


// points:

29
(
(703100 4735115 1172.569946)
(703260 4735115 1189.547974)
(703100 4735435 1195.067993)
(703260 4735435 1179.034058)
(703260 4735595 1175.004028)
(703420 4735595 1181.178955)
(703260 4735915 1198.562012)
(703420 4735915 1196.047974)
(703420 4736075 1196.457031)
(703260 4736075 1205.545044)
(703420 4736235 1196.255005)
(703420 4736395 1196.199951)
(703260 4736395 1209.80896)
(703260 4736555 1221.36499)
(703260 4736715 1229.160034)
(703420 4735435 1207.444946)
(703580 4735435 1231.227051)
(703580 4736715 1195.77002)
(703100 4735275 1176.20105)
(703260 4735275 1167.885986)
(703260 4735755 1188.368042)
(703420 4736715 1218.978027)
(703580 4735595 1214.073975)
(703580 4735755 1213.223999)
(703580 4735915 1215.396973)
(703580 4736075 1209.052979)
(703580 4736235 1206.140015)
(703580 4736395 1199.365967)
(703580 4736555 1195.982056)
)


// edges:

29
(
(0 1)
(18 0)
(1 19)
(2 18)
(19 3)
(3 2)
(4 5)
(20 4)
(6 20)
(7 6)
(8 9)
(9 7)
(11 12)
(12 10)
(13 11)
(14 13)
(21 14)
(15 16)
(5 15)
(16 22)
(22 23)
(23 24)
(24 25)
(10 8)
(25 26)
(26 27)
(27 28)
(28 17)
(17 21)
)

// * * * * * * * * * * * * * * * * * * * * * * * * * * * * * * * * * * * * * //


// ************************************************************************* //
