/*--------------------------------*- C++ -*----------------------------------*\
  =========                 |
  \\      /  F ield         | OpenFOAM: The Open Source CFD Toolbox
   \\    /   O peration     | Website:  https://openfoam.org
    \\  /    A nd           | Version:  6
     \\/     M anipulation  |
\*---------------------------------------------------------------------------*/
FoamFile
{
    version     2.0;
    format      ascii;
    class       featureEdgeMesh;
    location    "constant/triSurface";
    object      Roquedo.eMesh;
}
// * * * * * * * * * * * * * * * * * * * * * * * * * * * * * * * * * * * * * //


// points:

1835
(
(705660 4736715 1949.004028)
(705820 4735595 2428)
(705820 4735915 2404.716064)
(706140 4734795 2548.674072)
(706140 4736395 1960.88501)
(706300 4734635 2566.939941)
(706620 4735755 2254.926025)
(706780 4732715 2424.74292)
(706780 4734795 2587.398926)
(706940 4734635 2640.284912)
(706940 4735115 2481.322021)
(707100 4732235 2864.9729)
(707100 4734475 2618.510986)
(707260 4732555 2697.155029)
(707260 4734635 2690.236084)
(707260 4739595 2367.184082)
(707260 4739755 2386.368896)
(707420 4731595 2574.379883)
(707420 4731755 2603.836914)
(707420 4732715 2567.281006)
(707420 4739755 2366.686035)
(707580 4739595 2413.323975)
(707740 4732235 2441.37793)
(707740 4739595 2451.160889)
(707900 4731915 2581.589111)
(707900 4734795 2675.541992)
(708060 4731435 2687.187988)
(708060 4735275 2557.196045)
(708220 4731755 2690.302002)
(708220 4734955 2770.866943)
(708220 4739755 2527.729004)
(708380 4731595 2652.167969)
(708540 4734795 2744.037109)
(708860 4731595 2662.056885)
(709020 4739755 2201.060059)
(709180 4733675 2600.13208)
(709180 4733835 2641.145996)
(709340 4733995 2695.612061)
(709340 4734635 2529.00293)
(709500 4730635 2613.27002)
(709500 4732555 2550.121094)
(709500 4734155 2660.503906)
(709660 4729675 2216.441895)
(709660 4733515 2505.5271)
(709660 4734315 2679.933105)
(709820 4734475 2572.150879)
(709980 4734635 2424.004883)
(710620 4733035 2356.200928)
(710620 4737995 2425.178955)
(711100 4731275 2489.792969)
(711420 4731115 2582.707031)
(711420 4731275 2510.489014)
(711580 4730315 2698.914062)
(711580 4731115 2584.416016)
(711580 4731435 2360.624023)
(711740 4730635 2699.665039)
(711740 4731435 2192.269043)
(711900 4730795 2553.25293)
(712060 4730475 2633.783936)
(712060 4730955 2344.322021)
(712220 4730635 2622.468018)
(712380 4730955 2320.220947)
(712540 4729355 2581.210938)
(712540 4730635 2615.87207)
(712700 4729515 2563.438965)
(712860 4730315 2633.360107)
(713020 4730315 2631.123047)
(714460 4730955 2069.514893)
(714620 4730315 2445.504883)
(714780 4730635 2112.241943)
(715100 4730155 2439.100098)
(715260 4729195 2645.35498)
(715260 4729675 2647.579102)
(715260 4730315 2194.259033)
(715420 4729195 2613.395996)
(715420 4729355 2602.791992)
(716700 4740875 2267.009033)
(717180 4740555 2146.299072)
(717340 4740555 2090.531006)
(721820 4738475 2552.003906)
(721980 4738635 2655.928955)
(705500 4736875 1694.599976)
(706780 4732555 2403.761963)
(707580 4730635 2181.864014)
(707580 4732075 2516.449951)
(707580 4734635 2493.129883)
(707900 4739755 2236.560059)
(708380 4739595 2264.341064)
(708700 4731915 2351.73999)
(708860 4730795 2388.766113)
(708860 4731915 2398.016113)
(709340 4732555 2357.679932)
(710620 4733195 2065.884033)
(710940 4732075 2005.301025)
(711100 4729035 2012.874023)
(711740 4730955 2341.485107)
(711900 4730475 2573.729004)
(711900 4731115 2170.783936)
(712220 4730955 2172.052979)
(712380 4731115 2032.131958)
(712860 4730635 2251.188965)
(713020 4730635 2152.794922)
(713340 4730475 2175.091064)
(714620 4730635 2052.685059)
(714940 4730155 2323.990967)
(715260 4729995 2334.976074)
(715260 4730155 2178.575928)
(715420 4728875 2308.87793)
(702620 4738475 1480.998047)
(702460 4738635 1677.937012)
(702460 4738795 1837.067017)
(702620 4738795 1676.291992)
(702460 4738955 1857.199951)
(702620 4738955 1686.579956)
(702460 4739115 1822.755005)
(702620 4739115 1699.990967)
(704220 4737355 1558.327026)
(704220 4737515 1422.090942)
(704060 4737515 1411.560059)
(704380 4737355 1583.203003)
(704380 4732715 2130.800049)
(704380 4732875 1976.909058)
(704540 4732875 2048.279053)
(704380 4734955 1774.012939)
(704540 4734955 1866.776001)
(704380 4735115 1794.375977)
(704540 4735115 1862.55603)
(704700 4732875 2026.765991)
(704700 4733035 1900.421997)
(704700 4734635 2132.220947)
(704860 4734635 2155.327881)
(704700 4734795 2070.672119)
(704860 4734955 2099.808105)
(704860 4735115 2030.000977)
(704700 4735115 1929.609985)
(704700 4735275 1981.354004)
(705020 4733035 2002.02002)
(704860 4733195 1875.43103)
(704860 4733515 1659.880981)
(705020 4734475 2064.047119)
(705020 4734635 2183.138916)
(705020 4734795 2220.509033)
(705020 4735115 2190.881104)
(705020 4735275 2112.779053)
(704860 4735275 2055.425049)
(705020 4736875 1918.672974)
(705020 4737035 1838.417969)
(704860 4737035 1927.646973)
(704860 4737195 1802.139038)
(705020 4737355 1512.475952)
(705020 4737515 1412.791992)
(705180 4734635 2206.398926)
(705180 4735115 2279.933105)
(705180 4735275 2199.064941)
(705020 4735435 2237.922119)
(705180 4735435 2288.48291)
(705180 4736235 2159.181885)
(705180 4736395 2183.595947)
(705020 4736395 2067.798096)
(705020 4736555 2162.922119)
(705180 4736555 2177.912109)
(705180 4736875 1883.949951)
(705180 4737035 1840.107056)
(705180 4737195 1620.969971)
(705180 4737355 1496.994995)
(705340 4734475 2208.904053)
(705340 4734635 2272.623047)
(705340 4735275 2304.189941)
(705180 4735595 2194.2229)
(705340 4735595 2279.409912)
(705180 4735755 2095.059082)
(705180 4735915 2059.806885)
(705340 4735915 2145.553955)
(705180 4736075 2103.124023)
(705340 4736075 2247.610107)
(705340 4736555 2155.544922)
(705340 4736715 1969.629028)
(705340 4736875 1793.579956)
(705340 4737195 1557.796997)
(705180 4737515 1490.969971)
(705500 4732715 2477.822998)
(705500 4734475 2182.11499)
(705500 4734635 2279.77002)
(705500 4735755 2277.219971)
(705500 4735915 2286.475098)
(705500 4736075 2333.413086)
(705500 4737035 1606.823975)
(705500 4737195 1551.265991)
(705660 4733515 1803.948975)
(705660 4735435 2413.805908)
(705660 4735595 2421.324951)
(705660 4736875 1634.000977)
(705660 4737035 1578.510986)
(705660 4737195 1523.535034)
(705500 4737355 1523.324951)
(705820 4732715 2571.842041)
(705820 4733355 1917.797974)
(705820 4734635 2326.461914)
(705980 4732715 2488.748047)
(705980 4734475 2359.785889)
(705980 4734795 2487.248047)
(705980 4734955 2450.85498)
(706140 4729835 1768.079956)
(705980 4729995 1730.44397)
(706140 4732555 2601.451904)
(706140 4733355 1935.093994)
(706140 4734315 2257.159912)
(706140 4734475 2431.397949)
(706140 4736875 1601.397949)
(706300 4729835 1822.822998)
(706300 4729995 1941.487061)
(706300 4731915 2454.516113)
(706140 4731915 2456.572998)
(706300 4732555 2673.029053)
(706300 4733195 2032.896973)
(706300 4734315 2352.092041)
(706300 4736715 1728.822021)
(706460 4729675 1790.52002)
(706460 4729835 1931.708008)
(706460 4731595 2448.74707)
(706460 4731755 2465.260986)
(706300 4732075 2477.646973)
(706460 4732555 2566.721924)
(706460 4733195 2041.234985)
(706300 4733355 1977.781982)
(706460 4736235 1840.864014)
(706460 4736715 1669.156006)
(706460 4738955 2309.875977)
(706460 4739115 2221.552002)
(706300 4739115 2236.88501)
(706300 4739275 2143.540039)
(706460 4729995 1995.329956)
(706620 4729995 2021.837036)
(706460 4730315 2035.636963)
(706620 4730315 2107.227051)
(706620 4730475 2113.413086)
(706460 4730635 2136.711914)
(706620 4730635 2165.149902)
(706460 4731275 2359.226074)
(706620 4731275 2399.35791)
(706460 4731435 2444.968018)
(706620 4731595 2486.450928)
(706620 4731755 2524.853027)
(706460 4732395 2678.712891)
(706620 4732395 2587.162109)
(706620 4732715 2332.476074)
(706620 4732875 2232.310059)
(706460 4733355 1980.30603)
(706620 4733355 1994.822998)
(706620 4734475 2452.965088)
(706620 4736235 1873.130981)
(706620 4738635 2384.467041)
(706460 4738795 2313.103027)
(706780 4729675 1852.313965)
(706780 4729835 1993.92395)
(706620 4730795 2203.056885)
(706780 4730795 2212.124023)
(706780 4731115 2306.936035)
(706780 4731275 2425.327881)
(706780 4731755 2569.939941)
(706780 4732075 2631.157959)
(706620 4732235 2596.49707)
(706780 4732235 2694.13208)
(706780 4733195 2057.528076)
(706780 4734315 2380.843994)
(706780 4734475 2504.961914)
(706780 4735115 2419.802979)
(706780 4736075 1997.54895)
(706620 4738475 2353.699951)
(706780 4738475 2378.580078)
(706780 4738635 2439.677002)
(706780 4738795 2406.555908)
(706780 4729355 1696.150024)
(706940 4729355 1691.682983)
(706780 4729515 1762.725952)
(706940 4729515 1773.089966)
(706940 4729835 1952.765991)
(706780 4729995 2049.64502)
(706940 4730475 2239.650879)
(706940 4730635 2217.717041)
(706780 4730955 2231.61499)
(706940 4731275 2426.922119)
(706940 4731915 2681.384033)
(706940 4732075 2722.219971)
(706940 4732555 2474.302002)
(706940 4733195 2058.291992)
(706780 4733355 2009.094971)
(706940 4734315 2432.01709)
(706940 4734955 2443.170898)
(706940 4735435 2291.416016)
(706940 4735915 2025.975952)
(706940 4736075 1900.531006)
(706940 4738635 2349.066895)
(706940 4738795 2432.966064)
(706780 4739595 2114.675049)
(706940 4739595 2198.294922)
(706780 4739755 2100.628906)
(706940 4739755 2116.124023)
(706780 4739915 1958.418945)
(707100 4729355 1712.177979)
(707100 4729515 1816.779053)
(707100 4729675 1913.280029)
(707100 4729835 1968.009033)
(706940 4729995 2081.165039)
(707100 4729995 2108.284912)
(707100 4730635 2263.643066)
(707100 4730795 2274.268066)
(707100 4730955 2266.702881)
(706940 4731435 2533.077881)
(707100 4731435 2440.913086)
(707100 4731755 2585.524902)
(707100 4731915 2677.297119)
(707100 4732395 2711.301025)
(707100 4733195 2087.922119)
(706940 4733355 2038.458984)
(707100 4734315 2480.602051)
(707100 4734635 2629.444092)
(707100 4734955 2415.663086)
(707100 4735755 1946.472046)
(707100 4735915 1886.167969)
(707100 4739275 2215.135986)
(707100 4739755 2232.00293)
(707260 4729515 1863.968994)
(707260 4729835 1993.46106)
(707100 4730315 2207.926025)
(707260 4730315 2229.14502)
(707260 4730635 2316.802979)
(707260 4730795 2306.360107)
(707260 4732395 2699.344971)
(707260 4732715 2581.830078)
(707260 4733195 2094.175049)
(707100 4733355 2068.268066)
(707260 4734315 2366.483887)
(707260 4734475 2543.825928)
(707260 4734795 2546.853027)
(707260 4735595 1996.98999)
(707260 4739115 2286.988037)
(707260 4739275 2232.174072)
(707260 4739435 2258.414062)
(707100 4739915 2149.596924)
(707420 4729515 1909.535034)
(707420 4730315 2161.447998)
(707420 4730795 2360.103027)
(707420 4730955 2349.312012)
(707420 4732555 2575.209961)
(707420 4733195 2109.281006)
(707260 4733355 2078.153076)
(707260 4734155 2292.065918)
(707420 4734315 2340.683105)
(707420 4734475 2444.394043)
(707420 4734635 2627.708008)
(707420 4734795 2633.295898)
(707420 4735595 2009.536987)
(707260 4735755 1894.730957)
(707420 4738795 2449.680908)
(707420 4738955 2414.760986)
(707420 4739275 2298.587891)
(707420 4739435 2298.856934)
(707420 4739915 2217.022949)
(707260 4740075 2142.454102)
(707260 4740235 2092.764893)
(707420 4740235 2135.725098)
(707580 4729355 1855.942993)
(707580 4730795 2302.23291)
(707580 4730955 2380.366943)
(707580 4731435 2415.409912)
(707580 4731595 2489.195068)
(707580 4731915 2586.004883)
(707420 4733355 2084.496094)
(707580 4734155 2249.089111)
(707580 4734315 2350.524902)
(707580 4734475 2399.940918)
(707580 4734955 2539.427002)
(707420 4735755 1919.608032)
(707580 4735755 1967.965942)
(707420 4735915 1889.833984)
(707580 4738795 2438.075928)
(707580 4738955 2496.281982)
(707580 4740235 2194.251953)
(707420 4740395 2092.329102)
(707740 4729355 1899.394043)
(707740 4729835 2016.869995)
(707740 4730795 2248.349121)
(707740 4731435 2476.938965)
(707740 4734795 2566.281006)
(707740 4735915 2019.381958)
(707740 4738955 2552.754883)
(707740 4739115 2456.98999)
(707740 4740075 2122.077881)
(707740 4740235 2070.704102)
(707580 4740395 2143.493896)
(707900 4729355 1976.467041)
(707900 4729675 2022.892944)
(707900 4729835 2066.958008)
(707900 4730155 2100.529053)
(707900 4730795 2272.145996)
(707740 4730955 2401.926025)
(707900 4731115 2525.565918)
(707900 4731275 2563.538086)
(707740 4731275 2437.425049)
(707900 4732075 2418.668945)
(707900 4732875 2108.831055)
(707900 4734475 2416.628906)
(707900 4734635 2572.218994)
(707900 4734955 2677.110107)
(707900 4735755 2130.549072)
(707900 4738955 2439.091064)
(707900 4739595 2368.749023)
(708060 4729195 1974.814941)
(708060 4729355 2008.151001)
(708060 4729675 2085.833984)
(708060 4730155 2142.258057)
(708060 4730315 2157.829102)
(708060 4730795 2301.139893)
(708060 4731115 2522.687012)
(708060 4731755 2612.240967)
(708060 4731915 2515.462891)
(708060 4732715 2148.552002)
(708060 4732875 2100.678955)
(708060 4734475 2402.568115)
(708060 4734635 2539.185059)
(708060 4734795 2651.97998)
(708060 4735915 2180.415039)
(707900 4736075 2079.75293)
(708060 4736075 2097.23999)
(708060 4738795 2470.939941)
(708060 4739435 2337.439941)
(708060 4739595 2463.87207)
(708060 4739755 2441.483887)
(708220 4729195 2016.323975)
(708220 4729355 2029.56604)
(708220 4729675 2078.24707)
(708220 4730315 2199.362061)
(708220 4730475 2226.038086)
(708060 4730955 2427.990967)
(708220 4730955 2437.875977)
(708220 4731115 2474.753906)
(708220 4731275 2591.082031)
(708220 4731435 2653.458008)
(708220 4731595 2649.406006)
(708220 4732715 2100.668945)
(708220 4734635 2562.197021)
(708220 4735115 2584.804932)
(708220 4735915 2078.349121)
(708220 4738315 2456.580078)
(708220 4738475 2500.331055)
(708060 4738475 2405.516113)
(708060 4738635 2444.884033)
(708220 4739595 2424.673096)
(708220 4739915 2298.184082)
(708220 4740235 2065.542969)
(708380 4729355 2081.403076)
(708380 4729515 2090.006104)
(708220 4729835 2150.138916)
(708380 4729835 2150.540039)
(708380 4730315 2306.73291)
(708380 4730475 2290.602051)
(708380 4731115 2449.774902)
(708380 4731275 2493.663086)
(708380 4731435 2541.968994)
(708380 4733995 2317.961914)
(708380 4734155 2351.729004)
(708220 4734155 2294.455078)
(708220 4734475 2424.189941)
(708380 4734795 2715.156006)
(708380 4734955 2690.891113)
(708380 4735755 2065.496094)
(708380 4736075 2030.474976)
(708220 4736235 1980.519043)
(708380 4738315 2458.162109)
(708380 4739115 2310.760986)
(708380 4739275 2298.719971)
(708380 4739435 2272.523926)
(708380 4739755 2391.948975)
(708380 4740235 1999.359009)
(708220 4740395 2027.19397)
(708540 4729515 2163.228027)
(708540 4729675 2144.956055)
(708380 4730155 2198.806885)
(708540 4730315 2273.724121)
(708540 4730475 2351.922119)
(708540 4731275 2554.746094)
(708540 4731435 2569.89209)
(708540 4731595 2614.815918)
(708540 4732715 2144.424072)
(708380 4733835 2237.163086)
(708380 4734315 2374.946045)
(708540 4734315 2372.886963)
(708540 4734475 2485.313965)
(708540 4735755 2030.237061)
(708540 4738315 2474.450928)
(708540 4738955 2285.149902)
(708540 4739115 2263.25708)
(708540 4739275 2284.014893)
(708540 4739435 2260.621094)
(708540 4739595 2210.293945)
(708380 4740395 1922.975952)
(708540 4740395 1866.758057)
(708700 4729675 2240.029053)
(708700 4729995 2211.504883)
(708700 4730155 2208.293945)
(708700 4730315 2296.685059)
(708700 4731115 2528.656006)
(708540 4732875 2127.541016)
(708700 4734795 2566.019043)
(708700 4735435 2097.466064)
(708700 4735755 2049.824951)
(708540 4735915 2021.593994)
(708700 4738155 2401.068115)
(708700 4738315 2377.133057)
(708700 4739115 2253.695068)
(708700 4740075 1937.738037)
(708700 4740235 1895.339966)
(708860 4729995 2318.261963)
(708860 4730315 2326.112061)
(708860 4730475 2367.780029)
(708860 4731115 2623.905029)
(708860 4731435 2641.440918)
(708860 4731755 2551.552979)
(708860 4732075 2358.102051)
(708860 4732875 2225.623047)
(708860 4733355 2257.86499)
(708860 4735435 2136.145996)
(708860 4738795 2264.927979)
(708860 4738955 2263.724121)
(708860 4739435 2248.268066)
(708860 4739595 2207.572021)
(708860 4739915 2000.937988)
(709020 4730315 2402.86499)
(709020 4730475 2399.180908)
(709020 4730955 2518.085938)
(709020 4731275 2616.792969)
(709020 4731595 2489.706055)
(709020 4731755 2571.98291)
(709020 4731915 2541.003906)
(708860 4733035 2194.63501)
(709020 4733035 2273.25293)
(709020 4733355 2339.285889)
(709020 4734795 2530.596924)
(709020 4735275 2150.798096)
(709020 4737995 2437.246094)
(709020 4739595 2226.573975)
(709020 4739915 2042.694946)
(709020 4729035 1889.672974)
(709180 4729035 1952.094971)
(709020 4729195 2019.234009)
(709180 4729195 1993.973022)
(709180 4729355 2076.812988)
(709020 4729355 2132.102051)
(709180 4730315 2503.045898)
(709180 4730955 2566.12793)
(709020 4731115 2609.275879)
(709180 4731275 2474.547119)
(709180 4731755 2463.543945)
(709180 4731915 2631.762939)
(709180 4732075 2473.214111)
(709180 4733995 2547.653076)
(709180 4734635 2523.4021)
(709180 4735115 2197.729004)
(709180 4735275 2145.176025)
(709180 4738475 2256.599121)
(709180 4739755 2204.865967)
(709340 4728715 1726.68103)
(709340 4728875 1824.649048)
(709180 4728875 1827.978027)
(709340 4729195 2090.289062)
(709340 4729355 2135.448975)
(709340 4730315 2557.177979)
(709340 4730475 2459.789062)
(709340 4730795 2541.99292)
(709340 4730955 2652.749023)
(709340 4731115 2518.336914)
(709340 4731435 2340.077881)
(709340 4731755 2436.36792)
(709340 4731915 2530.793945)
(709340 4732075 2607.568115)
(709340 4732235 2630.806885)
(709340 4732715 2349.531006)
(709340 4733835 2622.375977)
(709340 4734155 2537.945068)
(709340 4738475 2269.134033)
(709180 4738635 2241.985107)
(709340 4739755 2283.927979)
(709340 4739915 2241.062988)
(709500 4728715 1725.531006)
(709500 4728875 1839.291016)
(709340 4729035 1967.562988)
(709500 4729035 1975.592041)
(709500 4729195 2013.832031)
(709340 4729515 2223.754883)
(709500 4729515 2198.905029)
(709500 4730155 2433.584961)
(709500 4730315 2391.156982)
(709500 4730475 2477.126953)
(709500 4730795 2597.481934)
(709500 4731115 2519.466064)
(709500 4731275 2383.926025)
(709500 4731435 2309.116943)
(709340 4731595 2372.650879)
(709500 4732075 2615.945068)
(709500 4732235 2744.85791)
(709500 4732395 2654.898926)
(709500 4733515 2505.985107)
(709500 4733995 2514.933105)
(709500 4734315 2559.808105)
(709500 4735115 2137.63501)
(709500 4738315 2367.362061)
(709340 4738635 2248.310059)
(709500 4739595 2301.25708)
(709500 4739755 2360.621094)
(709500 4739915 2265.865967)
(709500 4740075 2228.943115)
(709340 4740235 2148.775879)
(709660 4728715 1708.037964)
(709660 4728875 1859.540039)
(709660 4729515 2185.89209)
(709500 4729835 2347.542969)
(709660 4729995 2199.602051)
(709500 4730955 2642.406006)
(709660 4730955 2525.896973)
(709660 4731115 2496.77002)
(709660 4731275 2383.665039)
(709500 4731595 2356.693115)
(709660 4732235 2616.531982)
(709660 4732395 2683.669922)
(709660 4732715 2598.066895)
(709660 4732875 2575.577881)
(709660 4733035 2609.327881)
(709660 4733195 2521.48999)
(709660 4734155 2579.650879)
(709660 4734475 2523.326904)
(709660 4734955 2194.163086)
(709660 4737995 2502.062012)
(709660 4738315 2380.733887)
(709660 4738635 2311.423096)
(709660 4739595 2340.120117)
(709660 4739755 2342.150879)
(709660 4739915 2237.49707)
(709660 4740075 2215.552979)
(709820 4728875 1723.227051)
(709820 4729355 2014.238037)
(709820 4729835 1980.159058)
(709820 4729995 1927.55896)
(709820 4730155 2012.468994)
(709820 4731435 2255.721924)
(709820 4731595 2252.475098)
(709820 4732235 2495.133057)
(709820 4732395 2531.072021)
(709820 4732555 2458.322998)
(709820 4732715 2410.85498)
(709820 4732875 2418.678955)
(709820 4733835 2330.290039)
(709820 4733995 2417.687988)
(709820 4734315 2594.351074)
(709820 4734635 2358.711914)
(709820 4734955 2183.204102)
(709660 4735115 2136.922119)
(709820 4737835 2424.677979)
(709820 4737995 2406.85498)
(709820 4738155 2339.38208)
(709980 4729035 1722.13501)
(709820 4729195 1938.692017)
(709980 4729675 1819.291016)
(709980 4730155 1847.68103)
(709980 4730315 1934.187012)
(709980 4730475 2007.187988)
(709980 4730955 2198.51709)
(709980 4731595 2189.458984)
(709820 4731755 2233.486084)
(709980 4732395 2342.240967)
(709980 4733195 2468.908936)
(709980 4733675 2173.927979)
(709980 4733995 2294.159912)
(709980 4734155 2318.055908)
(709980 4734475 2313.417969)
(709980 4734795 2230.434082)
(709980 4734955 2152.082031)
(709980 4737995 2460.599121)
(709980 4738315 2226.701904)
(710140 4730315 1815.853027)
(710140 4733195 2218.787109)
(710140 4733995 2196.302002)
(710140 4734635 2212.304932)
(710140 4734955 2162.552002)
(709980 4735115 2128.246094)
(710140 4737995 2437.727051)
(710140 4738315 2148.88501)
(710140 4730795 1995.482056)
(710140 4731115 2136.343018)
(710300 4733035 2380.899902)
(710300 4733995 2117.75)
(710300 4734315 2100.101074)
(710300 4734955 2191.428955)
(710140 4735115 2143.540039)
(710300 4737835 2313.187012)
(710300 4737995 2308.060059)
(710300 4738315 2173.620117)
(710300 4738475 2122.018066)
(710140 4738475 2100.545898)
(710300 4728715 1677.029053)
(710460 4728715 1727.725952)
(710460 4728875 1833.688965)
(710300 4729035 1740.92395)
(710300 4729195 1774.420044)
(710460 4729195 1950.129028)
(710300 4729515 1743.905029)
(710460 4729515 1896.822021)
(710460 4730475 1859.71106)
(710460 4730635 1947.723022)
(710460 4731115 2097.836914)
(710300 4732555 2113.535889)
(710460 4732555 2021.386963)
(710300 4732715 2284.98291)
(710460 4732715 2091.780029)
(710460 4732875 2225.589111)
(710300 4732875 2306.9021)
(710460 4733035 2338.559082)
(710460 4734315 2081.437988)
(710460 4734475 2091.330078)
(710460 4734635 2139.596924)
(710460 4734795 2227.778076)
(710460 4734955 2237.324951)
(710460 4737835 2388.263916)
(710460 4737995 2445.573975)
(710460 4738155 2299.24292)
(710460 4738315 2204.330078)
(710620 4728715 1758.48999)
(710620 4728875 1913.942993)
(710620 4729035 2021.991943)
(710460 4729035 1844.156006)
(710620 4729195 1993.045044)
(710620 4729355 2005.755981)
(710460 4729675 1832.555054)
(710620 4729675 1993.880981)
(710620 4729835 1967.110962)
(710460 4729835 1848.760986)
(710620 4729995 2005.651001)
(710620 4730155 1981.22998)
(710460 4730155 1863.567017)
(710620 4730315 1990.036011)
(710460 4730315 1857.988037)
(710620 4730635 2057.587891)
(710460 4732235 2061.236084)
(710620 4732395 1969.636963)
(710620 4732555 1991.121948)
(710620 4734475 2076.833008)
(710620 4734635 2114.059082)
(710620 4734795 2223.062012)
(710620 4734955 2246.843994)
(710460 4735115 2223.720947)
(710620 4737835 2442.14209)
(710460 4738475 2146.583984)
(710620 4738475 2128.97998)
(710780 4728715 1793.323975)
(710780 4728875 1931.536987)
(710780 4729035 2044.551025)
(710780 4729355 2161.725098)
(710780 4729515 2233.052979)
(710780 4730635 2097.044922)
(710620 4730795 2092.163086)
(710620 4730955 2120.979004)
(710780 4730955 2193.716064)
(710620 4731275 2171.623047)
(710780 4731275 2276.459961)
(710780 4731915 2204.00293)
(710780 4732235 1952.729004)
(710780 4732395 1937.55896)
(710780 4732555 1979.157959)
(710780 4732875 2142.836914)
(710780 4733035 2176.176025)
(710780 4733355 2004.146973)
(710620 4737675 2344.62207)
(710780 4737675 2412.75293)
(710780 4738155 2250.159912)
(710780 4738315 2168.655029)
(710940 4728875 1939.024048)
(710940 4729035 2031.129028)
(710780 4729195 2042.041016)
(710940 4729195 2156.066895)
(710940 4729355 2217.274902)
(710940 4729515 2304.423096)
(710780 4730795 2133.584961)
(710940 4730795 2193.829102)
(710780 4731435 2257.322021)
(710940 4731435 2314.644043)
(710940 4731915 2255.315918)
(710940 4732235 1920.562988)
(710940 4732875 2127.592041)
(710940 4733675 1950.135986)
(710780 4737515 2353.106934)
(710940 4737515 2360.373047)
(710940 4737675 2369.862061)
(710940 4737995 2268.297119)
(710940 4738155 2211.626953)
(710940 4738315 2119.539062)
(711100 4728875 1919.362061)
(711100 4729195 2115.26001)
(711100 4729515 2303.35791)
(711100 4729675 2395.99707)
(711100 4731915 2080.283936)
(711100 4732075 1981.741943)
(711100 4733355 1965.66394)
(711100 4733515 1940.855957)
(711100 4737355 2402.931885)
(711100 4737515 2308.417969)
(711100 4737675 2253.885986)
(711100 4737835 2276.208008)
(711100 4737995 2323.399902)
(711100 4738155 2256.083008)
(711100 4728715 1847.932007)
(711260 4728715 1819.947021)
(711260 4728875 1910.234009)
(711260 4729035 2107.750977)
(711260 4729195 2156.548096)
(711100 4729355 2202.841064)
(711260 4729355 2304.690918)
(711260 4729675 2436.004883)
(711260 4731275 2467.050049)
(711260 4731435 2302.568115)
(711100 4731755 2251.934082)
(711260 4731755 2099.148926)
(711260 4732075 1942.468994)
(711100 4732235 1929.121948)
(711260 4737515 2253.49292)
(711260 4737835 2175.356934)
(711260 4737995 2191.341064)
(711260 4738155 2216.673096)
(711260 4738315 2131.074951)
(711420 4728715 1832.44104)
(711420 4728875 1905.20105)
(711420 4729195 2302.003906)
(711420 4729515 2476.711914)
(711420 4729675 2550.9729)
(711420 4731435 2330.396973)
(711260 4731595 2249.008057)
(711420 4731915 1986.978027)
(711420 4732075 1927.906982)
(711260 4732235 1918.480957)
(711420 4737355 2211.696045)
(711420 4737515 2244.10498)
(711420 4738155 2033.535034)
(711580 4729035 2061.833008)
(711420 4729355 2392.76001)
(711580 4729355 2256.670898)
(711580 4729515 2464.342041)
(711580 4729675 2553.218018)
(711580 4729835 2622.565918)
(711580 4730155 2665.110107)
(711580 4730475 2609.194092)
(711580 4730955 2535.727051)
(711580 4731275 2402.941895)
(711580 4731915 1942.060059)
(711580 4737515 2269.759033)
(711420 4737675 2162.069092)
(711580 4737675 2192.873047)
(711740 4729035 2081.608887)
(711740 4729195 2177.426025)
(711740 4729515 2387.456055)
(711740 4729675 2468.281006)
(711740 4729835 2527.927979)
(711740 4730315 2601.959961)
(711740 4730795 2584.52002)
(711740 4731115 2319.829102)
(711740 4731595 1961.290039)
(711740 4737675 2250.826904)
(711580 4737835 2139.386963)
(711900 4728715 2008.677002)
(711900 4728875 2115.540039)
(711900 4729035 2148.434082)
(711900 4729195 2216.887939)
(711900 4730315 2507.51709)
(711900 4730635 2535.941895)
(711900 4730955 2383.887939)
(711900 4731275 2164.458008)
(711900 4731435 2012.906006)
(711900 4731595 1928.998047)
(712060 4728715 2091.003906)
(712060 4728875 2160.194092)
(712060 4729515 2437.506104)
(712060 4729675 2452.638916)
(711900 4729675 2396.606934)
(711900 4729835 2426.856934)
(712060 4730635 2510.038086)
(712060 4730795 2358.846924)
(712060 4731115 2203.785889)
(712220 4728395 2058.863037)
(712220 4728555 2109.306885)
(712220 4728715 2236.550049)
(712060 4729355 2396.155029)
(712220 4729355 2473.76001)
(712220 4730475 2670.971924)
(712220 4730795 2304.559082)
(712220 4731115 2080.35791)
(712380 4728395 2056.912109)
(712380 4728715 2311.738037)
(712380 4729195 2449.866943)
(712380 4730795 2367.914062)
(712380 4728075 1975.866943)
(712540 4728075 1917.128052)
(712540 4728235 1951.149048)
(712540 4728395 2028.241943)
(712540 4728715 2260.87207)
(712540 4728875 2268.355957)
(712380 4728875 2277.635986)
(712540 4729035 2337.864014)
(712380 4729035 2326.150879)
(712540 4729195 2450.414062)
(712540 4729515 2574.985107)
(712540 4730795 2394.070068)
(712540 4731435 1889.428955)
(712540 4731595 1871.187988)
(712700 4727915 1883.987061)
(712700 4728075 1910.938965)
(712700 4728235 1927.907959)
(712700 4728395 1974.605957)
(712700 4728555 2043.411011)
(712700 4728875 2178.218994)
(712860 4728235 1881.464966)
(712860 4728395 1916.970947)
(712860 4728555 1977.932983)
(712860 4728715 2050.936035)
(712860 4728875 2130.23999)
(712860 4729195 2299.312988)
(712860 4729355 2374.784912)
(712860 4729675 2488.906006)
(712860 4729835 2563.691895)
(712860 4731435 1842.155029)
(712860 4738955 1928.45105)
(712860 4739115 1876.151001)
(712700 4739115 1836.802002)
(713020 4728075 1799.05896)
(713020 4728715 2002.353027)
(713020 4729195 2268.239014)
(713020 4729675 2477.615967)
(713020 4729835 2533.570068)
(713020 4729995 2591.641113)
(713020 4730155 2659.656006)
(713020 4731275 1860.546021)
(713020 4738955 1886.380981)
(713020 4739115 1866.536987)
(712860 4739275 1810.938965)
(713020 4739755 1706.162964)
(712860 4739755 1727.656006)
(713020 4739915 1653.744995)
(712860 4740075 1625.349976)
(713180 4727915 1786.509033)
(713180 4728715 2015.137939)
(713180 4728875 2129.436035)
(713180 4729995 2568.385986)
(713180 4730155 2605.519043)
(713180 4731275 1819.547974)
(713180 4739275 1798.397949)
(713180 4739435 1738.314941)
(713180 4739595 1716.555054)
(713180 4740075 1615.374023)
(713180 4728235 1820.963989)
(713340 4728235 1825.069946)
(713340 4728395 1904.821045)
(713180 4728555 1922.531006)
(713340 4728555 1927.333008)
(713180 4729195 2268.835938)
(713340 4730155 2537.706055)
(713340 4730315 2483.105957)
(713340 4731115 1810.022949)
(713180 4738635 1856.18103)
(713340 4738635 1781.324951)
(713340 4738795 1747.432007)
(713180 4738955 1837.003052)
(713340 4738955 1752.491943)
(713340 4739115 1759.810059)
(713340 4739275 1739.76001)
(713340 4739435 1701.906982)
(713340 4739595 1697.479004)
(713340 4739755 1634.293945)
(713340 4740075 1578.296021)
(713180 4740235 1608.655029)
(713500 4728235 1867.982056)
(713500 4728395 1940.110962)
(713500 4729195 2250.084961)
(713500 4730155 2501.39209)
(713500 4730315 2423.220947)
(713500 4731115 1806.042969)
(713500 4738795 1713.499023)
(713500 4739115 1700.968018)
(713500 4739275 1654.057007)
(713500 4739435 1646.133057)
(713500 4739755 1607.478027)
(713500 4739915 1569.733032)
(713500 4740075 1598.16394)
(713660 4728075 1906.016968)
(713660 4728235 1926.616943)
(713660 4728395 1959.30603)
(713660 4728875 2145.834961)
(713660 4729035 2197.844971)
(713660 4729195 2215.937012)
(713500 4729515 2275.009033)
(713660 4729515 2255.823975)
(713660 4738635 1670.845947)
(713660 4738795 1660.655029)
(713660 4738955 1629.965942)
(713660 4739435 1594.338013)
(713500 4739595 1663.120972)
(713820 4728235 1998.630005)
(713820 4728715 2103.469971)
(713820 4730155 2497.532959)
(713820 4730795 1969.900024)
(713820 4738795 1673.115967)
(713820 4738955 1638.196045)
(713820 4739115 1593.668945)
(713820 4727275 2152.228027)
(713980 4727275 2117.784912)
(713820 4727435 2183.663086)
(713980 4728075 1948.064941)
(713820 4728075 1964.500977)
(713980 4728875 2364.135986)
(713820 4729035 2246.714111)