/*--------------------------------*- C++ -*----------------------------------*\
  =========                 |
  \\      /  F ield         | OpenFOAM: The Open Source CFD Toolbox
   \\    /   O peration     | Website:  https://openfoam.org
    \\  /    A nd           | Version:  6
     \\/     M anipulation  |
\*---------------------------------------------------------------------------*/
FoamFile
{
    version     2.0;
    format      ascii;
    class       featureEdgeMesh;
    location    "constant/triSurface";
    object      Urbano_discontinuo.eMesh;
}
// * * * * * * * * * * * * * * * * * * * * * * * * * * * * * * * * * * * * * //


// points:

118
(
(702620 4727915 1020.161987)
(702620 4728075 978.6199951)
(702460 4728075 956.4810181)
(702460 4728235 959.8200073)
(715420 4739115 1512.667969)
(715420 4739275 1530.907959)
(715260 4739275 1513.718994)
(715420 4739435 1551.932007)
(715580 4739435 1574.652954)
(715740 4739115 1525.203979)
(715580 4739595 1601.741943)
(715900 4738955 1526.171021)
(715900 4739595 1604.675049)
(716060 4739275 1594.665039)
(715900 4739755 1621.265015)
(716060 4739755 1624.328979)
(716220 4738955 1512.27002)
(716220 4739115 1540.243042)
(716220 4739275 1583.909058)
(716220 4739435 1595.584961)
(716060 4739915 1659.60498)
(716380 4739435 1606.036987)
(716380 4739595 1621.755005)
(717980 4738635 1299.369995)
(717820 4738795 1333.293945)
(717820 4738955 1350.42395)
(717980 4738955 1302.404053)
(718140 4738955 1285.084961)
(717980 4739115 1332.087036)
(718300 4738635 1275.134033)
(718300 4738955 1278.338013)
(718140 4739115 1342.281006)
(718460 4738795 1340.797974)
(718460 4738955 1277.625)
(718300 4739115 1315.040039)
(718460 4739115 1277.352051)
(718620 4738955 1304.637939)
(718460 4739275 1325.124023)
(718620 4739275 1281.71106)
(718780 4739275 1298.827026)
(718620 4739435 1283.842041)
(719260 4722315 849.5560303)
(719260 4722475 850.0239868)
(719100 4722475 849.6110229)
(719260 4722635 851.2329712)
(719100 4722635 854.2800293)
(719100 4723115 876.0189819)
(719260 4723115 861.3109741)
(719260 4723435 863.1820068)
(719260 4723595 864.2600098)
(719100 4723755 909.0770264)
(719420 4721835 844.3770142)
(719420 4721995 847.9899902)
(719260 4721995 853.4769897)
(719260 4722155 852.8040161)
(719420 4722315 848.6339722)
(719260 4722795 851.0440063)
(719420 4722795 853.6829834)
(719260 4722955 851.2639771)
(719420 4722955 853.6920166)
(719420 4723115 858.9509888)
(719580 4722315 849.6149902)
(719580 4722955 852.3280029)
(719580 4723115 856.6060181)
(719580 4734795 1216.605957)
(719740 4734795 1178.807983)
(719580 4734955 1215.339966)
(719740 4734955 1180.641968)
(719580 4735115 1197.781982)
(719900 4734635 1162.517944)
(719900 4735115 1154.399048)
(719900 4734155 1252.887939)
(719900 4734315 1211.390015)
(720060 4734315 1185.159058)
(719900 4734475 1192.464966)
(720060 4734475 1166.52002)
(720060 4734795 1166.389038)
(720060 4734955 1162.016968)
(720220 4734155 1204.871948)
(720220 4734315 1158.819946)
(720220 4734635 1097.286011)
(721500 4733355 1138.110962)
(721660 4733355 1172.920044)
(721660 4733515 1164.284058)
(721500 4733675 1226.156006)
(721820 4733675 1178.488037)
(721980 4733515 1197.260986)
(721820 4733835 1225.142944)
(722140 4733195 1121.134033)
(721980 4733355 1224.394043)
(722300 4733195 1163.505981)
(722300 4733835 1237.54895)
(715580 4739115 1520.161011)
(715740 4739595 1600.64502)
(716060 4738955 1523.873047)
(716220 4739755 1622.291992)
(718140 4738635 1270.276978)
(718300 4738795 1291.553955)
(718620 4739115 1286.577026)
(719100 4723275 875.6380005)
(719100 4723435 878.2050171)
(719100 4723595 904.098999)
(719420 4722155 847.6589966)
(719420 4723275 860.8200073)
(719580 4722475 848.5139771)
(719580 4722635 852.0620117)
(719580 4722795 852.7509766)
(719740 4735115 1182.060059)
(720060 4734155 1214.837036)
(720220 4734475 1126.894043)
(721500 4733515 1182.803955)
(721660 4733675 1196.233032)
(721820 4733515 1170.041016)
(721980 4733835 1212.506958)
(722140 4733835 1247.619995)
(722300 4733355 1167.796997)
(722300 4733515 1184.121948)
(722300 4733675 1175.876953)
)


// edges:

123
(
(33 30)
(0 1)
(2 0)
(1 3)
(3 2)
(5 6)
(6 4)
(4 92)
(7 5)
(8 7)
(92 9)
(10 8)
(93 10)
(9 11)
(12 93)
(11 94)
(14 12)
(15 14)
(94 16)
(16 17)
(17 13)
(13 18)
(18 19)
(95 20)
(20 15)
(19 21)
(21 22)
(22 95)
(24 23)
(25 24)
(26 25)
(23 96)
(27 28)
(28 26)
(96 29)
(29 97)
(97 30)
(30 31)
(31 27)
(32 33)
(30 32)
(34 30)
(35 34)
(33 36)
(36 98)
(37 35)
(98 38)
(38 37)
(38 39)
(39 40)
(40 38)
(42 43)
(43 41)
(44 45)
(45 42)
(46 47)
(99 46)
(100 99)
(101 100)
(48 49)
(49 50)
(50 101)
(51 52)
(52 53)
(53 51)
(52 102)
(54 52)
(41 54)
(102 55)
(56 44)
(57 56)
(58 59)
(47 58)
(103 48)
(55 61)
(61 104)
(104 105)
(105 106)
(59 57)
(106 62)
(62 60)
(60 63)
(63 103)
(64 65)
(66 64)
(67 66)
(107 68)
(68 67)
(65 69)
(70 107)
(71 108)
(72 71)
(73 72)
(74 75)
(69 74)
(76 77)
(77 70)
(108 78)
(78 73)
(73 79)
(75 73)
(79 109)
(109 80)
(80 76)
(81 82)
(110 81)
(82 83)
(84 110)
(111 84)
(83 112)
(85 111)
(112 86)
(87 85)
(113 87)
(89 88)
(86 89)
(114 113)
(88 90)
(90 115)
(115 116)
(116 117)
(117 91)
(91 114)
)

// * * * * * * * * * * * * * * * * * * * * * * * * * * * * * * * * * * * * * //


// ************************************************************************* //
