/*--------------------------------*- C++ -*----------------------------------*\
  =========                 |
  \\      /  F ield         | OpenFOAM: The Open Source CFD Toolbox
   \\    /   O peration     | Website:  https://openfoam.org
    \\  /    A nd           | Version:  6
     \\/     M anipulation  |
\*---------------------------------------------------------------------------*/
FoamFile
{
    version     2.0;
    format      ascii;
    class       featureEdgeMesh;
    location    "constant/triSurface";
    object      Vegetacion_escasa.eMesh;
}
// * * * * * * * * * * * * * * * * * * * * * * * * * * * * * * * * * * * * * //


// points:

963
(
(710140 4738635 2154.947998)
(711100 4736395 2299.766113)
(713180 4733835 2034.008057)
(713180 4736235 2246.38208)
(713340 4733835 2008.73999)
(713500 4729675 2430.562988)
(713820 4736395 2200.986084)
(714140 4736395 2114.197998)
(716060 4728875 2511.339111)
(716220 4729035 2423.033936)
(716380 4728235 2310.041992)
(716380 4728395 2335.079102)
(716380 4729195 2362.221924)
(709500 4738795 2175.814941)
(713660 4729835 2374.582031)
(715900 4729355 2066.563965)
(716220 4729355 2066.385986)
(704380 4732075 1963.206055)
(704380 4732235 2015.478027)
(704220 4732235 1956.07605)
(704380 4732395 2090.706055)
(704220 4732395 1998.329956)
(704540 4732235 2085.564941)
(704540 4732395 2146.62207)
(704700 4731275 1930.588013)
(704540 4731435 1873.037964)
(704540 4731755 1912.587036)
(704540 4732075 2036.859985)
(704700 4732075 2101.509033)
(704700 4732235 2168.118896)
(704860 4731755 2045.166992)
(704860 4732075 2151.406006)
(705020 4731595 2034.515991)
(705020 4732075 2250.478027)
(705180 4731275 2023.021973)
(705180 4731435 2047.649048)
(705180 4731595 2083.547119)
(705180 4731915 2219.160889)
(705820 4731435 2253.74292)
(705820 4731595 2327.803955)
(705820 4731755 2379.403076)
(705820 4731915 2408.779053)
(705980 4731595 2372.782959)
(705980 4731755 2434.698975)
(705980 4731915 2460.900879)
(705820 4732075 2427.699951)
(706780 4724075 1388.936035)
(706780 4724235 1384.098022)
(706620 4724235 1371.037964)
(706620 4724395 1365.334961)
(706780 4724395 1398.927002)
(706940 4724235 1322.626953)
(706940 4724395 1318.594971)
(706940 4724075 1305.464966)
(707100 4724235 1271.920044)
(706940 4724555 1302.828979)
(707100 4724555 1231.473022)
(707100 4724715 1251.375977)
(706940 4724715 1334.223022)
(707260 4724075 1193.162964)
(707260 4724235 1201.677979)
(707260 4724395 1174.003052)
(707260 4725035 1245.541016)
(707100 4725195 1382.892944)
(707260 4725195 1310.973022)
(707420 4724235 1144.428955)
(707420 4725035 1244.296021)
(708065 4721195 1275.587036)
(708220 4721355 1200.848999)
(708060 4721355 1258.563965)
(709180 4738475 2256.599121)
(709180 4738635 2241.985107)
(709020 4738635 2247.555908)
(709340 4738475 2269.134033)
(709340 4738635 2248.310059)
(709180 4738795 2234.111084)
(709340 4738795 2242.638916)
(709180 4738955 2229.60791)
(709340 4738955 2230.840088)
(709180 4739115 2238.185059)
(709500 4738635 2241.299072)
(709500 4738955 2158.163086)
(709340 4739115 2232.14502)
(709660 4738635 2311.423096)
(709820 4738955 2070.469971)
(709980 4738315 2226.701904)
(709980 4738955 2042.253052)
(709820 4739115 2077.441895)
(710140 4738315 2148.88501)
(710140 4738475 2100.545898)
(710140 4738955 2018.277954)
(709980 4739115 2036.45105)
(710300 4738315 2173.620117)
(710300 4738475 2122.018066)
(710460 4728875 1833.688965)
(710460 4729035 1844.156006)
(710300 4729035 1740.92395)
(710460 4738155 2299.24292)
(710460 4738315 2204.330078)
(710460 4738475 2146.583984)
(710460 4738955 1949.192017)
(710620 4728875 1913.942993)
(710620 4729035 2021.991943)
(710460 4729195 1950.129028)
(710620 4735755 2237.460938)
(710620 4735915 2220.822998)
(710460 4735915 2132.238037)
(710620 4736075 2159.856934)
(710460 4736075 2104.405029)
(710620 4738475 2128.97998)
(710620 4738795 1933.892944)
(710780 4729035 2044.551025)
(710780 4729195 2042.041016)
(710620 4729195 1993.045044)
(710620 4735595 2224.965088)
(710780 4735915 2266.971924)
(710620 4736235 2117.812988)
(710780 4736235 2164.427979)
(710780 4738315 2168.655029)
(710780 4738795 1943.473022)
(710620 4738955 1924.154053)
(710940 4729195 2156.066895)
(710940 4729355 2217.274902)
(710780 4729515 2233.052979)
(710940 4735595 2130.483887)
(710940 4735755 2175.443115)
(710940 4735915 2265.339111)
(710780 4736395 2160.489014)
(710940 4736395 2212.191895)
(710780 4736555 2157.718018)
(710780 4736875 2118.187012)
(710940 4737995 2268.297119)
(710940 4738155 2211.626953)
(710780 4738155 2250.159912)
(710940 4738315 2119.539062)
(710940 4738795 1894.858032)
(710780 4738955 1912.369019)
(711100 4729195 2115.26001)
(711100 4729355 2202.841064)
(710940 4729515 2304.423096)
(711100 4729515 2303.35791)
(711100 4736235 2256.259033)
(711100 4737515 2308.417969)
(711100 4737675 2253.885986)
(710940 4737675 2369.862061)
(711100 4737995 2323.399902)
(711100 4738155 2256.083008)
(711100 4738795 1842.339966)
(710940 4738955 1883.89502)
(711260 4729355 2304.690918)
(711100 4729675 2395.99707)
(711260 4729675 2436.004883)
(711260 4735755 2074.937012)
(711260 4735915 2159.103027)
(711260 4736875 2133.019043)
(711100 4737835 2276.208008)
(711260 4737835 2175.356934)
(711260 4737995 2191.341064)
(711260 4738315 2131.074951)
(711260 4738795 1846.199951)
(711420 4729195 2302.003906)
(711420 4729355 2392.76001)
(711420 4729515 2476.711914)
(711420 4735915 2100.521973)
(711420 4736075 2119.523926)
(711420 4736235 2150.801025)
(711420 4736715 2115.457031)
(711420 4736875 2093.408936)
(711260 4737035 2174.163086)
(711420 4737515 2244.10498)
(711420 4737675 2162.069092)
(711260 4738155 2216.673096)
(711420 4738155 2033.535034)
(711420 4738475 1962.324951)
(711420 4738635 1907.218018)
(711580 4729355 2256.670898)
(711580 4729515 2464.342041)
(711420 4729675 2550.9729)
(711580 4736075 2086.753906)
(711580 4736235 2100.896973)
(711580 4736715 2071.425049)
(711580 4737675 2192.873047)
(711580 4737835 2139.386963)
(711580 4738315 2008.881958)
(711580 4738475 1969.608032)
(711740 4729515 2387.456055)
(711580 4729675 2553.218018)
(711740 4729675 2468.281006)
(711740 4729835 2527.927979)
(711580 4729835 2622.565918)
(711740 4736715 2050.61792)
(711580 4736875 2047.047974)
(711740 4737675 2250.826904)
(711740 4737835 2226.863037)
(711740 4738155 2036.286011)
(711740 4738315 2018.853027)
(711900 4728875 2115.540039)
(711900 4729035 2148.434082)
(711740 4729035 2081.608887)
(711740 4729195 2177.426025)
(711900 4729195 2216.887939)
(711900 4729355 2272.308105)
(711900 4729675 2396.606934)
(711900 4729835 2426.856934)
(711740 4730315 2601.959961)
(711900 4730315 2507.51709)
(711900 4735915 1965.661987)
(711900 4736075 1994.422974)
(711740 4736875 1994.38501)
(711900 4737675 2192.136963)
(711900 4737835 2218.467041)
(711900 4737995 2111.308105)
(711900 4738155 2059.251953)
(712060 4721995 1080.43396)
(711900 4722155 1090.228027)
(711900 4722315 1067.797974)
(712060 4728875 2160.194092)
(712060 4729355 2396.155029)
(712060 4729515 2437.506104)
(712060 4729675 2452.638916)
(712060 4737835 2124.135986)
(712060 4737995 2089.48291)
(712220 4721995 1053.843994)
(712060 4728715 2091.003906)
(712220 4728715 2236.550049)
(712220 4729355 2473.76001)
(712060 4732875 1885.501953)
(712060 4733035 1923.5)
(712220 4733035 1930.349976)
(712220 4733195 1952.437988)
(712060 4733195 1971.579956)
(712220 4733355 2031.717041)
(712060 4733355 2055.648926)
(712220 4721355 1156.974976)
(712380 4721355 1135.29895)
(712220 4721675 1118.655029)
(712380 4721675 1066.722046)
(712220 4721835 1084.52002)
(712380 4721835 1046.859009)
(712380 4728715 2311.738037)
(712380 4728875 2277.635986)
(712380 4729035 2326.150879)
(712380 4729195 2449.866943)
(712380 4732875 1903.199951)
(712220 4733515 2132.461914)
(712380 4736875 1984.266968)
(712225 4721195 1218.10498)
(712540 4721355 1051.636963)
(712540 4721675 1040.680054)
(712540 4728715 2260.87207)
(712540 4728875 2268.355957)
(712540 4729035 2337.864014)
(712540 4729195 2450.414062)
(712540 4732555 1843.834961)
(712380 4732715 1856.973022)
(712540 4732875 1900.258057)
(712540 4733515 2015.488037)
(712540 4736075 1998.462036)
(712540 4736715 2025.417969)
(712700 4721355 1030.264038)
(712700 4732875 1903.571045)
(712540 4733675 2066.770996)
(712700 4735915 1924.46106)
(712540 4736875 1967.831055)
(712705 4721195 1064.68396)
(712700 4732715 1871.463013)
(712860 4732715 1862.114014)
(712860 4733675 1977.88501)
(712860 4736875 1964.775024)
(712865 4721195 1036.61499)
(712860 4721355 1025.899048)
(712860 4728875 2130.23999)
(712860 4729195 2299.312988)
(713020 4729195 2268.239014)
(712860 4729355 2374.784912)
(712860 4729675 2488.906006)
(713020 4729675 2477.615967)
(713020 4729835 2533.570068)
(712860 4729835 2563.691895)
(713020 4732555 1820.970947)
(713020 4732715 1849.52002)
(712860 4733835 2047.06897)
(713020 4733835 2018.411011)
(713020 4735915 1984.870972)
(713020 4736875 1984.250977)
(712860 4737035 1926.932007)
(713180 4728875 2129.436035)
(713180 4729195 2268.835938)
(713020 4729995 2591.641113)
(713180 4729995 2568.385986)
(713020 4730155 2659.656006)
(713180 4732555 1828.795044)
(713180 4732715 1853.829956)
(713020 4733995 2061.447021)
(713180 4733995 1981.480957)
(713180 4735755 1919.802002)
(713180 4735915 2015.883057)
(713180 4736555 2193.418945)
(713180 4736875 1999.612061)
(713340 4730155 2537.706055)
(713340 4732555 1828.776978)
(713180 4734315 1877.64502)
(713340 4734315 1864.171997)
(713340 4735755 1899.338013)
(713340 4735915 1997.917969)
(713180 4737035 1937.010986)
(713340 4737035 1981.81604)
(713180 4737355 1884.119019)
(713340 4737355 1881.899048)
(713180 4737515 1843.381958)
(713500 4729195 2250.084961)
(713500 4729515 2275.009033)
(713500 4730155 2501.39209)
(713340 4730315 2483.105957)
(713500 4732555 1807.437012)
(713500 4732715 1852.072021)
(713340 4734475 1822.994995)
(713500 4735755 1895.968994)
(713500 4735915 1986.327026)
(713500 4736555 2204.570068)
(713340 4737195 1913.526001)
(713500 4737195 2009.410034)
(713660 4729035 2197.844971)
(713660 4729195 2215.937012)
(713660 4729515 2255.823975)
(713660 4730155 2509.983887)
(713660 4732555 1807.395996)
(713660 4732715 1838.524048)
(713660 4734475 1804.949951)
(713500 4735595 1782.505981)
(713660 4735915 1969.562012)
(713660 4736075 2052.893066)
(713660 4737515 1889.574951)
(713820 4728715 2103.469971)
(713660 4728875 2145.834961)
(713820 4729035 2246.714111)
(713820 4729195 2261.771973)
(713820 4729355 2308.843994)
(713820 4730155 2497.532959)
(713820 4732715 1795.880981)
(713820 4734475 1788.209961)
(713660 4734635 1761.973999)
(713820 4735595 1826.087036)
(713820 4736075 2092.916992)
(713820 4736715 2135.694092)
(713820 4736875 2101.396973)
(713820 4737515 1911.405029)
(713660 4737675 1847.896973)
(713980 4728875 2364.135986)
(713980 4729035 2384.839111)
(713980 4729195 2363.155029)
(713980 4729355 2490.124023)
(713980 4730155 2584.805908)
(713980 4732555 1754.953979)
(713980 4732875 1832.019043)
(713980 4734315 1842.999023)
(713980 4734475 1764.855957)
(713980 4735755 1971.729004)
(713820 4735915 1998.720947)
(713980 4735915 2040.307983)
(714140 4729035 2405.056885)
(714140 4729195 2540.983887)
(714140 4729835 2518.288086)
(714140 4729995 2553.782959)
(714140 4730155 2593.323975)
(713980 4730315 2369.793945)
(714140 4732875 1806.532959)
(714140 4734155 1785.468994)
(714140 4736555 2052.506104)
(714140 4736875 2053.572998)
(714140 4737035 2011.44397)
(714140 4740395 1712.484009)
(714140 4740555 1780.063965)
(713980 4740555 1733.51001)
(714140 4740715 1823.697021)
(713980 4740875 1821.615967)
(714300 4729195 2402.131104)
(714300 4729355 2462.136963)
(714300 4729515 2386.6521)
(714300 4729675 2405.856934)
(714300 4729835 2394.38208)
(714300 4729995 2500.493896)
(714300 4730155 2407.721924)
(714140 4730315 2391.591064)
(714140 4732715 1783.569946)
(714300 4732715 1779.248047)
(714300 4733995 1761.06604)
(714300 4734155 1765.932983)
(714300 4734315 1794.06604)
(714300 4736075 1896.453003)
(714300 4736715 2013.552002)
(714300 4737035 2015.151001)
(714300 4737515 1840.821045)
(714300 4739435 1511.386963)
(714300 4739595 1525.067017)
(714140 4739595 1528.599976)
(714300 4740395 1688.300049)
(714300 4740715 1830.103027)
(714300 4728715 2147.030029)
(714460 4728715 2154.423096)
(714300 4728875 2237.218994)
(714460 4728875 2240.320068)
(714460 4729035 2283.655029)
(714460 4729195 2302.528076)
(714460 4729675 2357.729004)
(714460 4729995 2539.100098)
(714460 4730155 2583.947998)
(714460 4732555 1716.493042)
(714460 4732715 1758.037964)
(714460 4733995 1751.600952)
(714460 4734155 1737.022949)
(714460 4734315 1728.579956)
(714300 4734475 1717.791016)
(714460 4734955 1665.041992)
(714460 4736075 1831.57605)
(714460 4736555 1965.64502)
(714460 4737035 1932.220947)
(714460 4737195 1911.026001)
(714460 4737355 1863.349976)
(714300 4739755 1548.110962)
(714460 4739755 1552.006958)
(714460 4740075 1587.868042)
(714300 4740235 1646.186035)
(714460 4740395 1707.522949)
(714460 4740555 1727.287964)
(714460 4740715 1812.103027)
(714460 4740875 1860.332031)
(714460 4741035 1877.334961)
(714300 4741035 1879.680054)
(714620 4729035 2238.184082)
(714620 4729995 2589.016113)
(714620 4733835 1693.848999)
(714620 4734315 1691.744995)
(714460 4734475 1695.45105)
(714620 4737355 1820.72998)
(714620 4739595 1589.578003)
(714620 4739755 1600.322021)
(714620 4739915 1589.723999)
(714620 4740075 1593.858032)
(714620 4740715 1788.255005)
(714620 4740875 1814.727051)
(714620 4728875 2198.474121)
(714780 4728875 2220.144043)
(714780 4729995 2586.003906)
(714620 4730155 2445.301025)
(714780 4733835 1663.875)
(714780 4734955 1650.543945)
(714780 4735115 1702.253052)
(714780 4735435 1765.692993)
(714780 4735595 1799.715942)
(714620 4736555 1928.30896)
(714780 4736555 1886.605957)
(714620 4736875 1918.935059)
(714780 4737195 1874.541016)
(714780 4740555 1702.026978)
(714780 4728715 2155.889893)
(714940 4728715 2190.381104)
(714940 4728875 2355.287109)
(714940 4729035 2474.310059)
(714940 4729195 2553.947998)
(714940 4729355 2520.88501)
(714940 4729995 2647.916016)
(714940 4731755 1758.285034)
(714940 4731915 1716.555054)
(714780 4731915 1724.754028)
(714940 4732715 1691.822998)
(714940 4732875 1720.166016)
(714940 4733835 1672.844971)
(714780 4733995 1682.571045)
(714940 4735115 1682.387939)
(714940 4735275 1705.793945)
(714940 4739755 1653.456055)
(714940 4740555 1750.256958)
(715100 4728715 2270.150879)
(715100 4728875 2398.751953)
(715100 4729195 2621.437988)
(715100 4729515 2586.148926)
(715100 4729835 2749.974121)
(715100 4731595 1779.766968)
(715100 4731755 1750.272949)
(715100 4732715 1677.89502)
(715100 4732875 1708.744019)
(715100 4733675 1688.121948)
(714940 4733995 1664.666992)
(715100 4736875 1877.550049)
(715100 4739435 1602.562988)
(715100 4739595 1644.244995)
(714940 4739595 1607.28894)
(715100 4739755 1668.364014)
(715100 4740075 1738.012939)
(715100 4740395 1755.265015)
(715260 4728715 2251.924072)
(715260 4728875 2419.624023)
(715100 4729035 2512.97998)
(715260 4731915 1718.514038)
(715100 4732075 1680.859985)
(715260 4732075 1685.603027)
(715100 4732395 1673.79895)
(715100 4732555 1645.848022)
(715260 4732715 1651.296997)
(715260 4732875 1703.144043)
(715260 4733195 1684.135986)
(715260 4733355 1682.258057)
(715260 4733515 1678.422974)
(715260 4736075 1774.744995)
(715100 4737035 1864.98999)
(715260 4739435 1576.251953)
(715260 4739595 1624.761963)
(715260 4739755 1629.349976)
(715260 4739915 1681.425049)
(715260 4740235 1756.5)
(715260 4740395 1800.045044)
(715100 4740555 1787.149048)
(715420 4731595 1714.571045)
(715420 4731915 1696.635986)
(715420 4732555 1618.151978)
(715420 4732715 1640.213013)
(715420 4733035 1669.954956)
(715420 4733195 1688.296021)
(715420 4733675 1673.21106)
(715420 4733835 1679.061035)
(715420 4733995 1684.430054)
(715420 4734155 1652.475952)
(715260 4734155 1658.982056)
(715260 4734315 1674.011963)
(715260 4734475 1669.895996)
(715420 4734475 1724.769043)
(715260 4735755 1749.385986)
(715420 4737035 1862.061035)
(715260 4740555 1821.678955)
(715580 4727435 1853.76001)
(715580 4727595 1937.453003)
(715420 4727595 1891.699951)
(715580 4730155 2159.0271)
(715580 4730315 2071.584961)
(715420 4730315 2027.036987)
(715580 4731755 1682.744019)
(715580 4731915 1660.057983)
(715420 4732235 1638.463013)
(715580 4732235 1607.541016)
(715580 4732395 1588.661987)
(715580 4733835 1675.255005)
(715580 4733995 1673.375)
(715580 4734315 1686.5)
(715580 4734475 1735.889038)
(715420 4734795 1663.051025)
(715580 4734795 1716.274048)
(715580 4736235 1821.188965)
(715580 4736555 1938.912964)
(715580 4736875 1826.578003)
(715580 4737035 1844.642944)
(715420 4737195 1830.682983)
(715580 4740235 1736.852051)
(715580 4740395 1785.041992)
(715740 4727595 1971.994019)
(715580 4727915 2062.937012)
(715740 4727915 2130.555908)
(715580 4728715 2271.074951)
(715740 4728715 2222.208008)
(715580 4728875 2258.833008)
(715740 4728875 2295.709961)
(715740 4729035 2368.926025)
(715740 4729195 2291.829102)
(715580 4729195 2518.148926)
(715580 4729355 2383.681885)
(715580 4729675 2388.988037)
(715740 4729675 2213.947998)
(715740 4729995 2049.110107)
(715580 4729995 2175.783936)
(715740 4730155 2055.450928)
(715740 4730315 2018.015991)
(715740 4731915 1664.511963)
(715740 4732395 1553.911987)
(715740 4734315 1734.444946)
(715740 4734635 1776.425049)
(715580 4734955 1692.946045)
(715740 4735755 1679.740967)
(715740 4736075 1800.641968)
(715740 4736715 1795.340942)
(715740 4736875 1784.505981)
(715740 4737035 1822.754028)
(715740 4740395 1791.251953)
(715740 4740555 1858.932983)
(715900 4727275 1787.53894)
(715900 4727435 1900.078979)
(715740 4727435 1882.359985)
(715740 4728075 2114.394043)
(715900 4728715 2316.697998)
(715900 4728875 2374.249023)
(715900 4729035 2302.352051)
(715900 4729515 2020.720947)
(715900 4729675 2032.33606)
(715900 4731595 1698.599976)
(715900 4731755 1670.811035)
(715900 4732235 1574.447998)
(715740 4733995 1677.753052)
(715900 4734475 1861.583984)
(715900 4734795 1786.859009)
(715900 4734955 1749.027954)
(715900 4736555 1811.187988)
(715900 4736715 1757.647949)
(715900 4736875 1748.670044)
(716060 4728075 2187.253906)
(716060 4728715 2391.25293)
(716060 4729035 2310.904053)
(716060 4729355 2036.057983)
(716060 4729995 1870.534058)
(716060 4731915 1623.953979)
(715900 4732395 1561.069946)
(716060 4734475 1801.781006)
(716060 4734635 1788.562988)
(716060 4734795 1762.615967)
(716220 4727755 2056.290039)
(716220 4727915 2143.98291)
(716060 4728235 2226.370117)
(716220 4728235 2302.61499)
(716060 4728395 2227.772949)
(716220 4728395 2311.75293)
(716220 4728875 2439.681885)
(716220 4729195 2303.996094)
(716220 4729515 1978.366943)
(716220 4729675 1941.175049)
(716220 4729995 1757.160034)
(716060 4730155 1743.203979)
(716220 4731595 1686.024048)
(716220 4731755 1656.699951)
(716060 4731755 1655.01001)
(716220 4733995 1773.239014)
(716380 4727435 1849.305054)
(716380 4729035 2296.837891)
(716380 4729355 2208.954102)
(716380 4729515 2077.51001)
(716380 4729675 1908.312988)
(716380 4731755 1652.348022)
(716380 4732235 1532.937012)
(716380 4732395 1483.05896)
(716220 4733835 1723.625)
(716540 4727275 1758.285034)
(716540 4727435 1844.637939)
(716540 4727915 2154.051025)
(716540 4728075 2266.022949)
(716540 4728555 2183.295898)
(716540 4728715 2166.532959)
(716540 4728875 2088.739014)
(716540 4729195 2223.763916)
(716540 4729355 2164.584961)
(716540 4729675 1895.912964)
(716540 4731755 1628.625977)
(716540 4733835 1756.498047)
(716700 4728395 2073.176025)
(716700 4729035 2000.479004)
(716700 4729195 2060.907959)
(716700 4729355 2076.613037)
(716540 4729515 2016.770996)
(716700 4731435 1589.590942)
(716700 4731595 1607.000977)
(716700 4731755 1602.036987)
(716700 4731915 1584.082031)
(716540 4733675 1741.635986)
(716700 4733675 1757.708984)
(716700 4733835 1771.380981)
(716700 4734315 1869.36499)
(716700 4734475 1826.874023)
(716700 4734635 1781.697021)
(716860 4728075 2226.364014)
(716860 4728235 2105.13501)
(716860 4728395 1975.614014)
(716700 4728555 2019.145996)
(716860 4728555 1932.590942)
(716860 4728875 1875.746948)
(716860 4729195 1939.371948)
(716860 4733835 1767.495972)
(716860 4734155 1851.89502)
(716860 4734475 1907.588989)
(717020 4728555 1825.458008)
(717020 4728715 1795.005005)
(717020 4728875 1784.948975)
(717020 4733515 1732.036011)
(717020 4733675 1759.399048)
(717020 4733835 1798.631958)
(717020 4733995 1836.050049)
(717020 4734155 1879.265015)
(717020 4734315 1944.394043)
(717180 4728875 1729.764038)
(717020 4729035 1820.157959)
(717340 4728875 1685.484009)
(717180 4729035 1716.276978)
(717340 4729035 1675.802979)
(717340 4733675 1742.734985)
(717500 4733675 1714.984985)
(717340 4733835 1761.399048)
(717500 4733835 1734.688965)
(717500 4733355 1715.416016)
(717660 4733675 1687.081055)
(717980 4733355 1582.985962)
(717980 4733515 1599.80603)
(718140 4733195 1539.621948)
(718140 4733355 1560.984985)
(718140 4733515 1579.437988)
(718140 4733675 1625.984985)
(718300 4733355 1538.062988)
(718460 4733355 1515.58606)
(704700 4731435 1924.189941)
(704700 4731755 1977.22998)
(704540 4731915 1974.256958)
(704860 4731275 1946.771973)
(704860 4731435 1973.126953)
(705020 4731275 1972.636963)
(705020 4731435 2026.371948)
(705340 4731435 2089.183105)
(705340 4731915 2280.787109)
(705500 4731435 2139.605957)
(705500 4731915 2298.362061)
(705660 4731435 2197.004883)
(705660 4731915 2349.854004)
(707100 4724075 1227.114014)
(707100 4724395 1245.353027)
(707260 4724555 1182.428955)
(707260 4724715 1197.357056)
(707100 4724875 1281.375)
(707260 4724875 1217.472046)
(707100 4725035 1328.83606)
(709660 4738955 2119.586914)
(709820 4738475 2285.89209)
(710300 4738955 1977.116943)
(710780 4735595 2191.325928)
(710780 4729355 2161.725098)
(710780 4736715 2143.188965)
(710940 4736875 2181.001953)
(711100 4735755 2119.849121)
(711100 4736875 2188.667969)
(711100 4738315 2117.509033)
(711260 4737515 2253.49292)
(711740 4736075 2035.890015)
(711740 4729355 2250.490967)
(711740 4729995 2525.914062)
(711900 4729995 2445.454102)
(711740 4730155 2547.004883)
(711900 4730155 2454.905029)
(711900 4736875 1985.098999)
(712060 4722155 1060.704956)
(712060 4736075 1984.937988)
(712060 4736875 1983.952026)
(712220 4732875 1890.477051)
(712220 4736075 1963.64502)
(712220 4736875 1980.694946)
(712220 4721515 1132.508057)
(712380 4733515 2055.815918)
(712380 4736075 1967.505981)
(712385 4721195 1180.795044)
(712540 4721515 1036.712036)
(712540 4732715 1844.708984)
(712545 4721195 1095.610962)
(712700 4733675 2005.218018)
(712700 4736875 1968.281006)
(712860 4735915 1955.282959)
(713020 4728875 2126.875977)
(712860 4729035 2246.898926)
(712860 4729515 2462.471924)
(713180 4729035 2201.802979)
(713180 4730155 2605.519043)
(713340 4729195 2257.897949)
(713180 4734155 1920.079956)
(713340 4737515 1830.839966)
(713500 4729355 2254.724121)
(713500 4734475 1797.557007)
(713500 4737515 1839.930054)
(713660 4735595 1786.624023)
(713660 4735755 1896.239014)
(713820 4728875 2204.708984)
(713660 4729355 2235.998047)
(713820 4735755 1936.633057)
(713980 4732715 1789.909058)
(713980 4735435 1753.982056)
(713980 4736715 2055.012939)
(713980 4736875 2100.349121)
(713980 4737515 1857.171021)
(714140 4734315 1833.715942)
(714140 4735275 1701.537964)
(714140 4736715 2031.598999)
(714140 4737515 1835.612061)
(714140 4740875 1873.265991)
(714300 4735115 1695.142944)
(714300 4740555 1756.500977)
(714300 4740875 1884.359009)
(714300 4729035 2309.416016)
(714460 4735915 1821.677979)
(714460 4736235 1860.348022)
(714460 4736395 1902.894043)
(714460 4739595 1572.676025)
(714460 4729355 2303.322021)
(714460 4729515 2318.166016)
(714620 4732715 1725.182007)
(714620 4734955 1663.064941)
(714620 4735755 1811.104004)
(714620 4737195 1873.786987)
(714460 4739915 1559.604004)
(714780 4732715 1721.154053)
(714620 4736715 1945.485962)
(714780 4736875 1896.902954)
(714780 4739755 1620.805054)
(714940 4736395 1853.718994)
(714940 4736875 1904.129028)
(715100 4729355 2615.099121)
(715100 4729675 2683.39209)
(715100 4733995 1652.026001)
(715100 4736235 1833.405029)
(715100 4739915 1689.317017)
(715260 4731595 1747.462036)
(715100 4731915 1719.696045)
(715260 4732395 1636.051025)
(715260 4732555 1647.041992)
(715260 4733675 1692.034058)
(715260 4733995 1649.126953)
(715260 4737035 1839.369019)
(715260 4740075 1724.454956)
(715420 4731755 1703.675049)
(715420 4732395 1626.702026)
(715420 4732875 1668.607056)
(715420 4734315 1703.878052)
(715420 4735755 1719.077026)
(715260 4735915 1771.703003)
(715420 4740235 1758.636963)
(715420 4740555 1864.069946)
(715420 4732075 1660.640991)
(715420 4734635 1709.442017)
(715580 4735755 1667.234985)
(715580 4736395 1876.333008)
(715580 4740555 1877.55603)
(715580 4727755 2006.97998)
(715580 4729515 2362.749023)
(715740 4729835 2086.135986)
(715740 4731755 1676.849976)
(715740 4734955 1747.432007)
(715740 4735915 1749.095947)
(715740 4736555 1856.865967)
(715900 4728075 2145.00293)
(715900 4730155 1937.295044)
(715900 4731915 1659.802979)
(715900 4733995 1693.439941)
(715740 4734155 1705.293945)
(715900 4734635 1805.214966)
(716060 4727435 1874.743042)
(716060 4732395 1520.885986)
(716060 4733995 1724.720947)
(716220 4727435 1886.371948)
(716060 4728555 2306.294922)
(716220 4732395 1475.91394)
(716220 4734635 1803.970947)
(716380 4727595 1944.036987)
(716380 4727915 2137.12793)
(716380 4729835 1846.475952)
(716380 4733835 1749.897949)
(716380 4734635 1746.904053)
(716540 4731595 1647.375977)
(716540 4732075 1562.972046)
(716540 4734635 1766.129028)
(716700 4728075 2244.38501)
(716700 4728875 1959.844971)
(716860 4729035 1900.593994)
(716860 4733675 1746.685059)
(716860 4728715 1898.609985)
(717660 4733355 1669.915039)
(717500 4733515 1714.285034)
(717820 4733355 1638.345947)
(717820 4733675 1667.072998)
(717980 4733675 1642.561035)
(718300 4733515 1567.099976)
(709820 4738635 2271.193115)
(709980 4738635 2218.577881)
(710780 4735755 2260.427002)
(710940 4736075 2276.564941)
(710940 4736235 2255.488037)
(711260 4736395 2268.646973)
(711420 4736395 2229.615967)
(711580 4736395 2204.281982)
(711740 4736395 2187.980957)
(711900 4736395 2208.8479)
(712060 4729035 2268.287109)
(712060 4729195 2363.907959)
(712060 4736395 2173.958008)
(712220 4736395 2161.194092)
(712380 4736395 2159.327881)
(712540 4736395 2161.216064)
(712700 4736395 2180.864014)
(712860 4736395 2182.768066)
(713180 4733035 2013.270996)
(713020 4733035 1989.339966)
(713020 4736235 2198.418945)
(713180 4736395 2258.498047)
(713340 4729355 2289.412109)
(713180 4729515 2375.629883)
(713340 4733035 1991.116943)
(713340 4733995 2006.996948)
(713340 4736555 2228.447998)
(713500 4729835 2483.049072)
(713500 4733035 1940.522949)
(713500 4736235 2161.553955)
(713340 4736235 2195.13501)
(713660 4733035 1921.671021)
(713660 4737195 2031.222046)
(713660 4737355 1979.436035)
(713820 4729995 2506.589111)
(713820 4733035 1937.16394)
(713820 4736235 2191.812012)
(713660 4736555 2227.728027)
(713980 4729835 2533.733887)
(713980 4733035 1885.765015)
(713980 4736395 2166.774902)
(714140 4729355 2541.343018)
(714140 4729515 2516.165039)
(714140 4729675 2526.23291)
(714140 4735595 1939.125977)
(714300 4735435 1836.656982)
(714300 4737195 1965.583984)
(714780 4733035 1793.350952)
(714620 4733195 1827.136963)
(714780 4729195 2481.424072)
(715100 4740235 1754.412964)
(715420 4736875 1904.089966)
(715420 4736715 1928.264038)
(715900 4727915 2108.196045)
(715740 4734475 1793.936035)
(716060 4734315 1813.560059)
(716220 4728715 2422.799072)
(716220 4728555 2387.708984)
(716380 4728555 2340.635986)
(716540 4728395 2272.478027)
(716380 4728875 2293.162109)
(716540 4734155 1869.657959)
(716380 4734315 1840.88501)
(716700 4728235 2191.298096)
(716860 4734315 1933.988037)
(709660 4738795 2187.37793)
(710780 4736075 2205.834961)
(711420 4737835 2131.947998)
(711420 4737995 2079.763916)
(711420 4738315 2012.265015)
(711900 4729515 2332.787109)
(712220 4728875 2198.669922)
(713180 4729355 2289.344971)
(713020 4729355 2309.340088)
(713340 4729835 2469.866943)
(713340 4729995 2484.074951)
(713340 4736395 2196.952881)
(713340 4736715 2152.863037)
(713660 4729675 2310.687988)
(713500 4729995 2466.498047)
(713980 4729995 2520.186035)
(713980 4736555 2072.73999)
(713820 4736555 2125.416992)
(714300 4735595 1859.380981)
(714300 4735755 1858.890991)
(714300 4736395 1977.725952)
(714620 4729195 2278.084961)
(714620 4729355 2327.736084)
(714620 4729675 2387.948975)
(714780 4729835 2547.172119)
(714940 4729515 2532.656006)
(715900 4729195 2147.736084)
(715740 4729355 2197.612061)
(716060 4729195 2147.979004)
(716220 4729835 1843.162964)
)


// edges:

1046
(
(47 50)
(868 83)
(869 868)
(0 869)
(93 0)
(870 115)
(121 122)
(126 115)
(126 871)
(871 872)
(141 1)
(873 1)
(161 162)
(874 873)
(875 874)
(876 875)
(201 185)
(877 876)
(210 193)
(878 879)
(880 877)
(224 216)
(881 880)
(239 240)
(882 881)
(883 882)
(884 883)
(885 884)
(886 887)
(2 293)
(3 888)
(3 889)
(889 297)
(890 891)
(892 886)
(4 2)
(4 893)
(894 297)
(5 895)
(312 299)
(896 892)
(897 898)
(319 894)
(324 5)
(899 896)
(900 901)
(902 325)
(903 899)
(904 6)
(6 905)
(906 902)
(907 903)
(908 6)
(361 909)
(909 910)
(910 911)
(911 362)
(362 363)
(364 352)
(912 357)
(7 908)
(7 368)
(913 912)
(391 914)
(402 376)
(405 381)
(443 430)
(915 916)
(459 917)
(489 918)
(919 528)
(533 534)
(548 920)
(921 556)
(588 561)
(596 922)
(8 588)
(8 589)
(923 596)
(924 8)
(618 8)
(9 604)
(618 9)
(9 619)
(619 605)
(10 11)
(11 925)
(926 924)
(629 9)
(12 619)
(629 12)
(12 630)
(631 621)
(640 10)
(927 926)
(642 928)
(644 12)
(929 930)
(931 927)
(652 645)
(932 661)
(682 932)
(80 13)
(933 13)
(86 84)
(88 89)
(90 86)
(125 115)
(126 934)
(131 132)
(141 128)
(935 936)
(936 172)
(172 937)
(175 162)
(200 201)
(201 938)
(938 202)
(202 203)
(939 216)
(240 939)
(940 941)
(942 943)
(944 297)
(319 945)
(324 946)
(946 14)
(14 947)
(948 338)
(949 950)
(951 952)
(953 368)
(405 382)
(429 954)
(954 955)
(956 404)
(957 443)
(476 958)
(558 559)
(561 562)
(588 589)
(589 959)
(15 960)
(959 15)
(15 590)
(961 605)
(618 604)
(16 605)
(16 620)
(620 621)
(962 622)
(629 619)
(672 661)
(17 18)
(18 19)
(19 17)
(18 20)
(20 21)
(21 18)
(22 23)