/*--------------------------------*- C++ -*----------------------------------*\
  =========                 |
  \\      /  F ield         | OpenFOAM: The Open Source CFD Toolbox
   \\    /   O peration     | Website:  https://openfoam.org
    \\  /    A nd           | Version:  6
     \\/     M anipulation  |
\*---------------------------------------------------------------------------*/
FoamFile
{
    version     2.0;
    format      ascii;
    class       featureEdgeMesh;
    location    "constant/triSurface";
    object      Zona_agricola_pero_con_zonas_de_vegetacion.eMesh;
}
// * * * * * * * * * * * * * * * * * * * * * * * * * * * * * * * * * * * * * //


// points:

78
(
(710300 4727435 1466.171021)
(710300 4727595 1486.672974)
(710140 4727595 1453.706055)
(710460 4726795 1395.412964)
(710300 4726955 1412.390991)
(710300 4727115 1403.521973)
(710460 4727115 1432.94104)
(710460 4727275 1461.027954)
(710300 4727275 1424.692993)
(710460 4725675 1304.995972)
(710620 4725675 1286.079956)
(710620 4725835 1316.237061)
(710620 4725995 1340.532959)
(710620 4726955 1453.462036)
(710780 4725835 1393.902954)
(718460 4732715 1468.812012)
(718620 4732715 1414.407959)
(718460 4732875 1444.246948)
(718620 4732875 1427.280029)
(718620 4733035 1456.985962)
(718460 4733035 1467.571045)
(718460 4733195 1482.702026)
(718620 4733195 1498.635986)
(718460 4733355 1515.58606)
(718460 4733515 1540.004028)
(718780 4732875 1417.467041)
(718780 4733035 1449.994019)
(718780 4733515 1463.86499)
(718780 4733835 1482.770996)
(718780 4733995 1486.437012)
(718620 4733995 1522.602051)
(718620 4734155 1477.532959)
(718940 4732555 1344.10498)
(718940 4732875 1397.713013)
(718940 4733195 1438.379028)
(718940 4733515 1441.291016)
(718780 4733675 1472.358032)
(718940 4733675 1436.625977)
(719100 4732555 1323.506958)
(719100 4733035 1399.046021)
(719100 4733195 1464.854004)
(719100 4733515 1409.671021)
(719100 4733835 1410.188965)
(719100 4733995 1417.709961)
(719100 4734155 1405.57605)
(719260 4733195 1405.480957)
(719260 4733355 1433.911011)
(719260 4733515 1432.093018)
(719260 4733835 1368.493042)
(719260 4733995 1396.520996)
(719260 4734155 1380.08606)
(719100 4734315 1354.199951)
(719420 4733355 1390.396973)
(719420 4733675 1409.657959)
(719420 4733835 1362.073975)
(719420 4733995 1377.984985)
(719420 4734155 1342.767944)
(719260 4734315 1357.209961)
(719420 4734315 1323.642944)
(719580 4734155 1308.400024)
(710460 4725835 1288.36499)
(710460 4725995 1293.722046)
(710460 4726155 1313.552002)
(710620 4726155 1363.91394)
(710460 4726315 1328.659058)
(710620 4726315 1360.676025)
(710460 4726475 1354.438965)
(710620 4726475 1393.734009)
(710460 4726635 1372.378052)
(710620 4726635 1410.583984)
(710620 4726795 1429.905029)
(718620 4733515 1505.389038)
(718780 4732715 1393.734985)
(718780 4734155 1462.996948)
(718940 4732715 1372.918945)
(718940 4733035 1428.577026)
(718940 4734155 1430.715942)
(719260 4733675 1405.508057)
)


// edges:

85
(
(0 1)
(1 2)
(2 0)
(4 3)
(5 4)
(6 5)
(6 7)
(8 6)
(7 0)
(0 8)
(9 10)
(60 9)
(10 11)
(61 60)
(62 61)
(12 63)
(64 62)
(63 65)
(66 64)
(65 67)
(68 66)
(67 69)
(3 68)
(69 70)
(70 13)
(13 6)
(11 14)
(14 12)
(15 16)
(17 15)
(16 18)
(18 17)
(20 18)
(21 20)
(19 22)
(22 21)
(23 22)
(24 23)
(71 24)
(18 72)
(26 19)
(22 26)
(27 71)
(29 30)
(30 28)
(73 31)
(31 29)
(72 32)
(74 25)
(25 33)
(33 75)
(75 34)
(35 36)
(36 27)
(36 37)
(28 36)
(76 73)
(32 38)
(38 74)
(39 40)
(34 39)
(41 35)
(37 41)
(42 43)
(44 76)
(40 45)
(45 46)
(47 77)
(77 48)
(48 42)
(43 49)
(49 50)
(50 51)
(51 44)
(46 52)
(52 47)
(53 54)
(54 48)
(48 53)
(55 56)
(50 55)
(57 50)
(58 57)
(56 59)
(59 58)
)

// * * * * * * * * * * * * * * * * * * * * * * * * * * * * * * * * * * * * * //


// ************************************************************************* //
