/*--------------------------------*- C++ -*----------------------------------*\
| =========                 |                                                 |
| \\      /  F ield         | OpenFOAM: The Open Source CFD Toolbox           |
|  \\    /   O peration     | Version:  5                                     |
|   \\  /    A nd           | Web:      www.OpenFOAM.org                      |
|    \\/     M anipulation  |                                                 |
\*---------------------------------------------------------------------------*/
FoamFile
{
    version     2.0;
    format      ascii;
    class       dictionary;
    object      fvSchemes;
}
// * * * * * * * * * * * * * * * * * * * * * * * * * * * * * * * * * * * * * //

ddtSchemes
{
    default         steadyState;
}

gradSchemes
{
    default         Gauss linear;

    limited         cellLimited Gauss linear 1;
    grad(U)         $limited;
    grad(k)         $limited;
    grad(epsilon)     $limited;
    grad(nut)     $limited;
    grad(nuTilda)     $limited;
}

divSchemes
{
    default         none;

    div(phi,U)      bounded Gauss linearUpwind limited;

    turbulence      bounded Gauss limitedLinear 1;
    
    div(phi,k)      $turbulence;
    div(phi,K)        $turbulence; //para rhoSimpleFoam

    div(phi,Ekp)        $turbulence; //para rhoSimpleFoam
    div(phi,e)        $turbulence; //para rhoSimpleFoam

    div(phi,omega)      $turbulence;
    div(phi,epsilon) $turbulence;
    div(phi,nuTilda) $turbulence;

    //div(((rho*nuEff)*dev2(T(grad(U))))) Gauss linear; //para rhoSimpleFoam
    div((nuEff*dev2(T(grad(U))))) Gauss linear;
}

laplacianSchemes
{
//     default         Gauss linear corrected;
    default         Gauss linear limited corrected 0.333;
}

interpolationSchemes
{
    default         linear;
}

snGradSchemes
{
//     default         corrected;
    default         limited corrected 0.333;
}

wallDist
{
    method meshWave;
}

// ************************************************************************* //
