/*--------------------------------*- C++ -*----------------------------------*\ 
| =========                 |                                                 |
| \      /  F ield         | OpenFOAM: The Open Source CFD Toolbox            |
|  \    /   O peration     | Version:  2.3.0                                  |
|   \  /    A nd           | Web:      www.OpenFOAM.org                       |
|    \/     M anipulation  |                                                  |
\*---------------------------------------------------------------------------*/
FoamFile
{
    version     2.3;
    format      ascii;
    class       dictionary;
    object      surfaceFeatureExtractDict;
}
// * * * * * * * * * * * * * * * * * * * * * * * * * * * * * * * * * * * * * //

Arena.stl
{
    extractionMethod    extractFromSurface;
    extractFromSurfaceCoeffs
    {
        // Mark edges whose adjacent surface normals are at an angle less
        // than includedAngle as features
        // - 0  : selects no edges
        // - 180: selects all edges
        includedAngle   150;
    }

    // Write options
    writeFeatureEdgeMesh    yes;
}

Bosque_coniferas.stl
{
    extractionMethod    extractFromSurface;
    extractFromSurfaceCoeffs
    {
        // Mark edges whose adjacent surface normals are at an angle less
        // than includedAngle as features
        // - 0  : selects no edges
        // - 180: selects all edges
        includedAngle   150;
    }

    // Write options
    writeFeatureEdgeMesh    yes;
}

Bosque_frondosas.stl
{
    extractionMethod    extractFromSurface;
    extractFromSurfaceCoeffs
    {
        // Mark edges whose adjacent surface normals are at an angle less
        // than includedAngle as features
        // - 0  : selects no edges
        // - 180: selects all edges
        includedAngle   150;
    }

    // Write options
    writeFeatureEdgeMesh    yes;
}

Bosque_mixto.stl
{
    extractionMethod    extractFromSurface;
    extractFromSurfaceCoeffs
    {
        // Mark edges whose adjacent surface normals are at an angle less
        // than includedAngle as features
        // - 0  : selects no edges
        // - 180: selects all edges
        includedAngle   150;
    }

    // Write options
    writeFeatureEdgeMesh    yes;
}

Instalaciones_deportivas.stl
{
    extractionMethod    extractFromSurface;
    extractFromSurfaceCoeffs
    {
        // Mark edges whose adjacent surface normals are at an angle less
        // than includedAngle as features
        // - 0  : selects no edges
        // - 180: selects all edges
        includedAngle   150;
    }

    // Write options
    writeFeatureEdgeMesh    yes;
}

Laminas_de_agua.stl
{
    extractionMethod    extractFromSurface;
    extractFromSurfaceCoeffs
    {
        // Mark edges whose adjacent surface normals are at an angle less
        // than includedAngle as features
        // - 0  : selects no edges
        // - 180: selects all edges
        includedAngle   150;
    }

    // Write options
    writeFeatureEdgeMesh    yes;
}

Matorral_boscoso_de_transicion.stl
{
    extractionMethod    extractFromSurface;
    extractFromSurfaceCoeffs
    {
        // Mark edges whose adjacent surface normals are at an angle less
        // than includedAngle as features
        // - 0  : selects no edges
        // - 180: selects all edges
        includedAngle   150;
    }

    // Write options
    writeFeatureEdgeMesh    yes;
}

Matorrales.stl
{
    extractionMethod    extractFromSurface;
    extractFromSurfaceCoeffs
    {
        // Mark edges whose adjacent surface normals are at an angle less
        // than includedAngle as features
        // - 0  : selects no edges
        // - 180: selects all edges
        includedAngle   150;
    }

    // Write options
    writeFeatureEdgeMesh    yes;
}

Mosaico_de_cultivos.stl
{
    extractionMethod    extractFromSurface;
    extractFromSurfaceCoeffs
    {
        // Mark edges whose adjacent surface normals are at an angle less
        // than includedAngle as features
        // - 0  : selects no edges
        // - 180: selects all edges
        includedAngle   150;
    }

    // Write options
    writeFeatureEdgeMesh    yes;
}

Pastizales_naturales.stl
{
    extractionMethod    extractFromSurface;
    extractFromSurfaceCoeffs
    {
        // Mark edges whose adjacent surface normals are at an angle less
        // than includedAngle as features
        // - 0  : selects no edges
        // - 180: selects all edges
        includedAngle   150;
    }

    // Write options
    writeFeatureEdgeMesh    yes;
}

Praderas.stl
{
    extractionMethod    extractFromSurface;
    extractFromSurfaceCoeffs
    {
        // Mark edges whose adjacent surface normals are at an angle less
        // than includedAngle as features
        // - 0  : selects no edges
        // - 180: selects all edges
        includedAngle   150;
    }

    // Write options
    writeFeatureEdgeMesh    yes;
}

Redes_viarias.stl
{
    extractionMethod    extractFromSurface;
    extractFromSurfaceCoeffs
    {
        // Mark edges whose adjacent surface normals are at an angle less
        // than includedAngle as features
        // - 0  : selects no edges
        // - 180: selects all edges
        includedAngle   150;
    }

    // Write options
    writeFeatureEdgeMesh    yes;
}

Roquedo.stl
{
    extractionMethod    extractFromSurface;
    extractFromSurfaceCoeffs
    {
        // Mark edges whose adjacent surface normals are at an angle less
        // than includedAngle as features
        // - 0  : selects no edges
        // - 180: selects all edges
        includedAngle   150;
    }

    // Write options
    writeFeatureEdgeMesh    yes;
}

Urbano_continuo.stl
{
    extractionMethod    extractFromSurface;
    extractFromSurfaceCoeffs
    {
        // Mark edges whose adjacent surface normals are at an angle less
        // than includedAngle as features
        // - 0  : selects no edges
        // - 180: selects all edges
        includedAngle   150;
    }

    // Write options
    writeFeatureEdgeMesh    yes;
}

Urbano_discontinuo.stl
{
    extractionMethod    extractFromSurface;
    extractFromSurfaceCoeffs
    {
        // Mark edges whose adjacent surface normals are at an angle less
        // than includedAngle as features
        // - 0  : selects no edges
        // - 180: selects all edges
        includedAngle   150;
    }

    // Write options
    writeFeatureEdgeMesh    yes;
}

Vegetacion_escasa.stl
{
    extractionMethod    extractFromSurface;
    extractFromSurfaceCoeffs
    {
        // Mark edges whose adjacent surface normals are at an angle less
        // than includedAngle as features
        // - 0  : selects no edges
        // - 180: selects all edges
        includedAngle   150;
    }

    // Write options
    writeFeatureEdgeMesh    yes;
}

Zona_agricola_pero_con_zonas_de_vegetacion.stl
{
    extractionMethod    extractFromSurface;
    extractFromSurfaceCoeffs
    {
        // Mark edges whose adjacent surface normals are at an angle less
        // than includedAngle as features
        // - 0  : selects no edges
        // - 180: selects all edges
        includedAngle   150;
    }

    // Write options
    writeFeatureEdgeMesh    yes;
}

// ************************************************************************* //
